#!/bin/bash

if [ $# -eq 0 ]; then
    echo "usage: run-all <config_dir> <num_cores>"
    exit -1
fi

base_dir=/home/ubuntu/ece568-single-core-dse
config_dir=$1
hw_cores=$(lscpu | grep "CPU(s):" | awk '{print $2}')
num_cores=${2:-$hw_cores}
files=$(ls -1 $config_dir | sed -e 's/\..*$//')
num_files=$(cat files | wc -l)
sim_dir=/home/ubuntu/5MD00_SC/src/
simulation=eeg
counter=0

echo "running $num_files simulations using $num_cores cores" && sleep 2

cd $sim_dir

for file in $files
do
  if [ ! -f $base_dir/results/$file.out ]; then
    echo "running simulation: sim-outorder -redir:sim $base_dir/results/$file.out -config $config_dir$file.cfg $simulation"
    sim-outorder -redir:sim $base_dir/results/$file.out -config $base_dir/$config_dir$file.cfg $simulation &> $base_dir/start_$file.out &
    let counter=counter+1
  fi
  if [ $counter -gt 0 ]; then
    if ! ((counter % num_cores)) || ((counter == num_files)); then
      echo "$(date) - waiting for jobs to complete, count = $counter"
      wait
    fi
  fi
done

cd -
