#!/bin/bash

if [ $# -eq 0 ]; then
    echo "usage: run-all <config_dir>"
    exit -1
fi

base_dir=/home/ubuntu/ece568-single-core-dse
config_dir=$1
files=$(ls -1 $config_dir | sed -e 's/\..*$//')
sim_dir=/home/ubuntu/5MD00_SC/src/
simulation=eeg
counter=0

cd $sim_dir

for file in $files
do
  if [ ! -f results/$file.out ]; then
    echo "running simulation: sim-outorder -redir:sim $base_dir/results/$file.out -config $config_dir$file.cfg $simulation"
    sim-outorder -redir:sim $base_dir/results/$file.out -config $base_dir/$config_dir$file.cfg $simulation &> $base_dir/start_$file.out &
    let counter=counter+1
  fi
  if ! ((counter % 8)); then
    echo "waiting for jobs to complete, count = $counter"
    wait
  fi
done

cd -
