sim-outorder: SimpleScalar/PISA Tool Set version 3.0 of August, 2003.
Copyright (c) 1994-2003 by Todd M. Austin, Ph.D. and SimpleScalar, LLC.
All Rights Reserved. This version of SimpleScalar is licensed for academic
non-commercial use.  No portion of this work may be used by any commercial
entity, or for any commercial purpose, without the prior written permission
of SimpleScalar, LLC (info@simplescalar.com).


Processor Parameters:
Issue Width: 4
Window Size: 16
Number of Virtual Registers: 32
Number of Physical Registers: 16
Datapath Width: 64
Total Power Consumption: 62.1178
Branch Predictor Power Consumption: 4.52313  (7.52%)
 branch target buffer power (W): 4.16837
 local predict power (W): 0.0879711
 global predict power (W): 0.0996078
 chooser power (W): 0.0702439
 RAS power (W): 0.0969383
Rename Logic Power Consumption: 0.417965  (0.695%)
 Instruction Decode Power (W): 0.0159915
 RAT decode_power (W): 0.113514
 RAT wordline_power (W): 0.0307815
 RAT bitline_power (W): 0.246771
 DCL Comparators (W): 0.0109075
Instruction Window Power Consumption: 2.20432  (3.67%)
 tagdrive (W): 0.0943488
 tagmatch (W): 0.033695
 Selection Logic (W): 0.0134217
 decode_power (W): 0.0532503
 wordline_power (W): 0.0844643
 bitline_power (W): 1.92514
Load/Store Queue Power Consumption: 0.96318  (1.6%)
 tagdrive (W): 0.457232
 tagmatch (W): 0.100774
 decode_power (W): 0.00799577
 wordline_power (W): 0.0150119
 bitline_power (W): 0.382166
Arch. Register File Power Consumption: 3.57247  (5.94%)
 decode_power (W): 0.113514
 wordline_power (W): 0.0844643
 bitline_power (W): 3.37449
Result Bus Power Consumption: 2.29754  (3.82%)
Total Clock Power: 21.5676  (35.9%)
Int ALU Power: 4.66013  (7.75%)
FP ALU Power: 7.14052  (11.9%)
Instruction Cache Power Consumption: 2.21363  (3.68%)
 decode_power (W): 0.779481
 wordline_power (W): 0.028656
 bitline_power (W): 0.886372
 senseamp_power (W): 0.096
 tagarray_power (W): 0.423116
Itlb_power (W): 0.263317 (0.438%)
Data Cache Power Consumption: 5.18303  (8.62%)
 decode_power (W): 0.651055
 wordline_power (W): 0.196735
 bitline_power (W): 2.71235
 senseamp_power (W): 0.768
 tagarray_power (W): 0.854886
Dtlb_power (W): 0.901877 (1.5%)
Level 2 Cache Power Consumption: 4.2091 (7%)
 decode_power (W): 0.41817
 wordline_power (W): 0.0430878
 bitline_power (W): 3.0244
 senseamp_power (W): 0.192
 tagarray_power (W): 0.531433
sim: command line: sim-outorder -redir:sim results/alu3.out -config configs/alu3.cfg eeg 

sim: simulation started @ Wed Mar  2 15:37:38 2016, options follow:

sim-outorder: This simulator implements a very detailed out-of-order issue
superscalar processor with a two-level memory system and speculative
execution support.  This simulator is a performance simulator, tracking the
latency of all pipeline operations.

# -config                     # load configuration from a file
# -dumpconfig                 # dump configuration to a file
# -h                    false # print help message    
# -v                    false # verbose operation     
# -d                    false # enable debug message  
# -i                    false # start in Dlite debugger
-seed                       1 # random number generator seed (0 for timer seed)
# -q                    false # initialize and terminate immediately
# -chkpt               <null> # restore EIO trace execution from <fname>
# -redir:sim     results/alu3.out # redirect simulator output to file (non-interactive only)
# -redir:prog          <null> # redirect simulated program output to file
-nice                       0 # simulator scheduling priority
-max:inst                   0 # maximum number of inst's to execute
-fastfwd                    0 # number of insts skipped before timing starts
# -ptrace              <null> # generate pipetrace, i.e., <fname|stdout|stderr> <range>
-fetch:ifqsize              4 # instruction fetch queue size (in insts)
-fetch:mplat                3 # extra branch mis-prediction latency
-fetch:speed                1 # speed of front-end of machine relative to execution core
-bpred                  bimod # branch predictor type {nottaken|taken|perfect|bimod|2lev|comb}
-bpred:bimod     2048 # bimodal predictor config (<table size>)
-bpred:2lev      1 1024 8 0 # 2-level predictor config (<l1size> <l2size> <hist_size> <xor>)
-bpred:comb      1024 # combining predictor config (<meta_table_size>)
-bpred:ras                  8 # return address stack size (0 for no return stack)
-bpred:btb       512 4 # BTB config (<num_sets> <associativity>)
# -bpred:spec_update       <null> # speculative predictors update in {ID|WB} (default non-spec)
-decode:width               4 # instruction decode B/W (insts/cycle)
-issue:width                4 # instruction issue B/W (insts/cycle)
-issue:inorder          false # run pipeline with in-order issue
-issue:wrongpath         true # issue instructions down wrong execution paths
-commit:width               4 # instruction commit B/W (insts/cycle)
-ruu:size                  16 # register update unit (RUU) size
-lsq:size                   8 # load/store queue (LSQ) size
-cache:dl1       dl1:128:32:4:l # l1 data cache config, i.e., {<config>|none}
-cache:dl1lat               1 # l1 data cache hit latency (in cycles)
-cache:dl2       ul2:1024:64:4:l # l2 data cache config, i.e., {<config>|none}
-cache:dl2lat               6 # l2 data cache hit latency (in cycles)
-cache:il1       il1:512:32:1:l # l1 inst cache config, i.e., {<config>|dl1|dl2|none}
-cache:il1lat               1 # l1 instruction cache hit latency (in cycles)
-cache:il2                dl2 # l2 instruction cache config, i.e., {<config>|dl2|none}
-cache:il2lat               6 # l2 instruction cache hit latency (in cycles)
-cache:flush            false # flush caches on system calls
-cache:icompress        false # convert 64-bit inst addresses to 32-bit inst equivalents
-mem:lat         18 2 # memory access latency (<first_chunk> <inter_chunk>)
-mem:width                  8 # memory access bus width (in bytes)
-tlb:itlb        itlb:16:4096:4:l # instruction TLB config, i.e., {<config>|none}
-tlb:dtlb        dtlb:32:4096:4:l # data TLB config, i.e., {<config>|none}
-tlb:lat                   30 # inst/data TLB miss latency (in cycles)
-res:ialu                   4 # total number of integer ALU's available
-res:imult                  1 # total number of integer multiplier/dividers available
-res:memport                2 # total number of memory system ports available (to CPU)
-res:fpalu                  2 # total number of floating point ALU's available
-res:fpmult                 1 # total number of floating point multiplier/dividers available
# -pcstat              <null> # profile stat(s) against text addr's (mult uses ok)
-bugcompat              false # operate in backward-compatible bugs mode (for testing only)

  Pipetrace range arguments are formatted as follows:

    {{@|#}<start>}:{{@|#|+}<end>}

  Both ends of the range are optional, if neither are specified, the entire
  execution is traced.  Ranges that start with a `@' designate an address
  range to be traced, those that start with an `#' designate a cycle count
  range.  All other range values represent an instruction count range.  The
  second argument, if specified with a `+', indicates a value relative
  to the first argument, e.g., 1000:+100 == 1000:1100.  Program symbols may
  be used in all contexts.

    Examples:   -ptrace FOO.trc #0:#1000
                -ptrace BAR.trc @2000:
                -ptrace BLAH.trc :1500
                -ptrace UXXE.trc :
                -ptrace FOOBAR.trc @main:+278

  Branch predictor configuration examples for 2-level predictor:
    Configurations:   N, M, W, X
      N   # entries in first level (# of shift register(s))
      W   width of shift register(s)
      M   # entries in 2nd level (# of counters, or other FSM)
      X   (yes-1/no-0) xor history and address for 2nd level index
    Sample predictors:
      GAg     : 1, W, 2^W, 0
      GAp     : 1, W, M (M > 2^W), 0
      PAg     : N, W, 2^W, 0
      PAp     : N, W, M (M == 2^(N+W)), 0
      gshare  : 1, W, 2^W, 1
  Predictor `comb' combines a bimodal and a 2-level predictor.

  The cache config parameter <config> has the following format:

    <name>:<nsets>:<bsize>:<assoc>:<repl>

    <name>   - name of the cache being defined
    <nsets>  - number of sets in the cache
    <bsize>  - block size of the cache
    <assoc>  - associativity of the cache
    <repl>   - block replacement strategy, 'l'-LRU, 'f'-FIFO, 'r'-random

    Examples:   -cache:dl1 dl1:4096:32:1:l
                -dtlb dtlb:128:4096:32:r

  Cache levels can be unified by pointing a level of the instruction cache
  hierarchy at the data cache hiearchy using the "dl1" and "dl2" cache
  configuration arguments.  Most sensible combinations are supported, e.g.,

    A unified l2 cache (il2 is pointed at dl2):
      -cache:il1 il1:128:64:1:l -cache:il2 dl2
      -cache:dl1 dl1:256:32:1:l -cache:dl2 ul2:1024:64:2:l

    Or, a fully unified cache hierarchy (il1 pointed at dl1):
      -cache:il1 dl1
      -cache:dl1 ul1:256:32:1:l -cache:dl2 ul2:1024:64:2:l



sim: ** starting performance simulation **

sim: ** simulation statistics **
sim_num_insn              843084151 # total number of instructions committed
sim_num_refs              255252603 # total number of loads and stores committed
sim_num_loads             171182879 # total number of loads committed
sim_num_stores         84069724.0000 # total number of stores committed
sim_num_branches          120663280 # total number of branches committed
sim_elapsed_time               9010 # total simulation time in seconds
sim_inst_rate            93572.0478 # simulation speed (in insts/sec)
sim_total_insn            860228097 # total number of instructions executed
sim_total_refs            263489830 # total number of loads and stores executed
sim_total_loads           179315782 # total number of loads executed
sim_total_stores       84174048.0000 # total number of stores executed
sim_total_branches        121867731 # total number of branches executed
sim_cycle                 553698433 # total simulation time in cycles
sim_IPC                      1.5226 # instructions per cycle
sim_CPI                      0.6568 # cycles per instruction
sim_exec_BW                  1.5536 # total instructions (mis-spec + committed) per cycle
sim_IPB                      6.9871 # instruction per branch
IFQ_count                1620156864 # cumulative IFQ occupancy
IFQ_fcount                349032171 # cumulative IFQ full count
ifq_occupancy                2.9261 # avg IFQ occupancy (insn's)
ifq_rate                     1.5536 # avg IFQ dispatch rate (insn/cycle)
ifq_latency                  1.8834 # avg IFQ occupant latency (cycle's)
ifq_full                     0.6304 # fraction of time (cycle's) IFQ was full
RUU_count                6747497175 # cumulative RUU occupancy
RUU_fcount                234554904 # cumulative RUU full count
ruu_occupancy               12.1862 # avg RUU occupancy (insn's)
ruu_rate                     1.5536 # avg RUU dispatch rate (insn/cycle)
ruu_latency                  7.8438 # avg RUU occupant latency (cycle's)
ruu_full                     0.4236 # fraction of time (cycle's) RUU was full
LSQ_count                2256197079 # cumulative LSQ occupancy
LSQ_fcount                134193881 # cumulative LSQ full count
lsq_occupancy                4.0748 # avg LSQ occupancy (insn's)
lsq_rate                     1.5536 # avg LSQ dispatch rate (insn/cycle)
lsq_latency                  2.6228 # avg LSQ occupant latency (cycle's)
lsq_full                     0.2424 # fraction of time (cycle's) LSQ was full
sim_slip                 9989759344 # total number of slip cycles
avg_sim_slip                11.8491 # the average slip between issue and retirement
bpred_bimod.lookups       122473327 # total number of bpred lookups
bpred_bimod.updates       120663280 # total number of updates
bpred_bimod.addr_hits     118814947 # total number of address-predicted hits
bpred_bimod.dir_hits      118820777 # total number of direction-predicted hits (includes addr-hits)
bpred_bimod.misses          1842503 # total number of misses
bpred_bimod.jr_hits        28432077 # total number of address-predicted hits for JR's
bpred_bimod.jr_seen        28438481 # total number of JR's seen
bpred_bimod.jr_non_ras_hits.PP           39 # total number of address-predicted hits for non-RAS JR's
bpred_bimod.jr_non_ras_seen.PP         1276 # total number of non-RAS JR's seen
bpred_bimod.bpred_addr_rate    0.9847 # branch address-prediction rate (i.e., addr-hits/updates)
bpred_bimod.bpred_dir_rate    0.9847 # branch direction-prediction rate (i.e., all-hits/updates)
bpred_bimod.bpred_jr_rate    0.9998 # JR address-prediction rate (i.e., JR addr-hits/JRs seen)
bpred_bimod.bpred_jr_non_ras_rate.PP    0.0306 # non-RAS JR addr-pred rate (ie, non-RAS JR hits/JRs seen)
bpred_bimod.retstack_pushes     29031518 # total number of address pushed onto ret-addr stack
bpred_bimod.retstack_pops     28640455 # total number of address popped off of ret-addr stack
bpred_bimod.used_ras.PP     28437205 # total number of RAS predictions used
bpred_bimod.ras_hits.PP     28432038 # total number of RAS hits
bpred_bimod.ras_rate.PP    0.9998 # RAS prediction rate (i.e., RAS hits/used RAS)
il1.accesses              885237046 # total number of accesses
il1.hits                  866938648 # total number of hits
il1.misses                 18298398 # total number of misses
il1.replacements           18297886 # total number of replacements
il1.writebacks                    0 # total number of writebacks
il1.invalidations                 0 # total number of invalidations
il1.miss_rate                0.0207 # miss rate (i.e., misses/ref)
il1.repl_rate                0.0207 # replacement rate (i.e., repls/ref)
il1.wb_rate                  0.0000 # writeback rate (i.e., wrbks/ref)
il1.inv_rate                 0.0000 # invalidation rate (i.e., invs/ref)
dl1.accesses              261889864 # total number of accesses
dl1.hits                  261360905 # total number of hits
dl1.misses                   528959 # total number of misses
dl1.replacements             528447 # total number of replacements
dl1.writebacks               328466 # total number of writebacks
dl1.invalidations                 0 # total number of invalidations
dl1.miss_rate                0.0020 # miss rate (i.e., misses/ref)
dl1.repl_rate                0.0020 # replacement rate (i.e., repls/ref)
dl1.wb_rate                  0.0013 # writeback rate (i.e., wrbks/ref)
dl1.inv_rate                 0.0000 # invalidation rate (i.e., invs/ref)
ul2.accesses               19155823 # total number of accesses
ul2.hits                   19093394 # total number of hits
ul2.misses                    62429 # total number of misses
ul2.replacements              58333 # total number of replacements
ul2.writebacks                57267 # total number of writebacks
ul2.invalidations                 0 # total number of invalidations
ul2.miss_rate                0.0033 # miss rate (i.e., misses/ref)
ul2.repl_rate                0.0030 # replacement rate (i.e., repls/ref)
ul2.wb_rate                  0.0030 # writeback rate (i.e., wrbks/ref)
ul2.inv_rate                 0.0000 # invalidation rate (i.e., invs/ref)
itlb.accesses             885237046 # total number of accesses
itlb.hits                 885237015 # total number of hits
itlb.misses                      31 # total number of misses
itlb.replacements                 0 # total number of replacements
itlb.writebacks                   0 # total number of writebacks
itlb.invalidations                0 # total number of invalidations
itlb.miss_rate               0.0000 # miss rate (i.e., misses/ref)
itlb.repl_rate               0.0000 # replacement rate (i.e., repls/ref)
itlb.wb_rate                 0.0000 # writeback rate (i.e., wrbks/ref)
itlb.inv_rate                0.0000 # invalidation rate (i.e., invs/ref)
dtlb.accesses             261902281 # total number of accesses
dtlb.hits                 261900899 # total number of hits
dtlb.misses                    1382 # total number of misses
dtlb.replacements              1254 # total number of replacements
dtlb.writebacks                   0 # total number of writebacks
dtlb.invalidations                0 # total number of invalidations
dtlb.miss_rate               0.0000 # miss rate (i.e., misses/ref)
dtlb.repl_rate               0.0000 # replacement rate (i.e., repls/ref)
dtlb.wb_rate                 0.0000 # writeback rate (i.e., wrbks/ref)
dtlb.inv_rate                0.0000 # invalidation rate (i.e., invs/ref)
rename_power           231426838.4704 # total power usage of rename unit
bpred_power            2504448004.0159 # total power usage of bpred unit
window_power           1220528225.7856 # total power usage of instruction window
lsq_power              533311253.4171 # total power usage of load/store queue
regfile_power          1978072201.6565 # total power usage of arch. regfile
icache_power           1371478764.5832 # total power usage of icache
dcache_power           3369203041.3198 # total power usage of dcache
dcache2_power          2330569564.7569 # total power usage of dcache2
alu_power              6534002970.7895 # total power usage of alu
falu_power             3953696107.9136 # total power usage of falu
resultbus_power        1272145898.3273 # total power usage of resultbus
clock_power            11941960268.2521 # total power usage of clock
avg_rename_power             0.4180 # avg power usage of rename unit
avg_bpred_power              4.5231 # avg power usage of bpred unit
avg_window_power             2.2043 # avg power usage of instruction window
avg_lsq_power                0.9632 # avg power usage of lsq
avg_regfile_power            3.5725 # avg power usage of arch. regfile
avg_icache_power             2.4769 # avg power usage of icache
avg_dcache_power             6.0849 # avg power usage of dcache
avg_dcache2_power            4.2091 # avg power usage of dcache2
avg_alu_power               11.8007 # avg power usage of alu
avg_falu_power               7.1405 # avg power usage of falu
avg_resultbus_power          2.2975 # avg power usage of resultbus
avg_clock_power             21.5676 # avg power usage of clock
fetch_stage_power      3875926768.5990 # total power usage of fetch stage
dispatch_stage_power   231426838.4704 # total power usage of dispatch stage
issue_stage_power      15259760954.3963 # total power usage of issue stage
avg_fetch_power              7.0001 # average power of fetch unit per cycle
avg_dispatch_power           0.4180 # average power of dispatch unit per cycle
avg_issue_power             27.5597 # average power of issue unit per cycle
total_power            33287147031.3743 # total power per cycle
avg_total_power_cycle       60.1178 # average total power per cycle
avg_total_power_cycle_nofp_nod2      48.7682 # average total power per cycle
avg_total_power_insn        38.6957 # average total power per insn
avg_total_power_insn_nofp_nod2      31.3904 # average total power per insn
rename_power_cc1       125816013.8415 # total power usage of rename unit_cc1
bpred_power_cc1        444463044.0966 # total power usage of bpred unit_cc1
window_power_cc1       920389708.0468 # total power usage of instruction window_cc1
lsq_power_cc1          78164699.0507 # total power usage of lsq_cc1
regfile_power_cc1      1025142858.4402 # total power usage of arch. regfile_cc1
icache_power_cc1       785753283.8316 # total power usage of icache_cc1
dcache_power_cc1       997707750.0598 # total power usage of dcache_cc1
dcache2_power_cc1      79240773.8609 # total power usage of dcache2_cc1
alu_power_cc1          2370004281.7349 # total power usage of alu_cc1
resultbus_power_cc1    657431478.4950 # total power usage of resultbus_cc1
clock_power_cc1        4776590311.5207 # total power usage of clock_cc1
avg_rename_power_cc1         0.2272 # avg power usage of rename unit_cc1
avg_bpred_power_cc1          0.8027 # avg power usage of bpred unit_cc1
avg_window_power_cc1         1.6623 # avg power usage of instruction window_cc1
avg_lsq_power_cc1            0.1412 # avg power usage of lsq_cc1
avg_regfile_power_cc1        1.8514 # avg power usage of arch. regfile_cc1
avg_icache_power_cc1         1.4191 # avg power usage of icache_cc1
avg_dcache_power_cc1         1.8019 # avg power usage of dcache_cc1
avg_dcache2_power_cc1        0.1431 # avg power usage of dcache2_cc1
avg_alu_power_cc1            4.2803 # avg power usage of alu_cc1
avg_resultbus_power_cc1       1.1873 # avg power usage of resultbus_cc1
avg_clock_power_cc1          8.6267 # avg power usage of clock_cc1
fetch_stage_power_cc1  1230216327.9283 # total power usage of fetch stage_cc1
dispatch_stage_power_cc1 125816013.8415 # total power usage of dispatch stage_cc1
issue_stage_power_cc1  5102938691.2482 # total power usage of issue stage_cc1
avg_fetch_power_cc1          2.2218 # average power of fetch unit per cycle_cc1
avg_dispatch_power_cc1       0.2272 # average power of dispatch unit per cycle_cc1
avg_issue_power_cc1          9.2161 # average power of issue unit per cycle_cc1
total_power_cycle_cc1  12260704202.9788 # total power per cycle_cc1
avg_total_power_cycle_cc1      22.1433 # average total power per cycle_cc1
avg_total_power_insn_cc1      14.2529 # average total power per insn_cc1
rename_power_cc2       89881422.3878 # total power usage of rename unit_cc2
bpred_power_cc2        272887633.8811 # total power usage of bpred unit_cc2
window_power_cc2       644025163.3343 # total power usage of instruction window_cc2
lsq_power_cc2          61494434.6947 # total power usage of lsq_cc2
regfile_power_cc2      309972446.1636 # total power usage of arch. regfile_cc2
icache_power_cc2       785753283.8316 # total power usage of icache_cc2
dcache_power_cc2       796787636.9369 # total power usage of dcache_cc2
dcache2_power_cc2      40314343.6539 # total power usage of dcache2_cc2
alu_power_cc2          1277977596.4320 # total power usage of alu_cc2
resultbus_power_cc2    380714117.6445 # total power usage of resultbus_cc2
clock_power_cc2        2952428854.7710 # total power usage of clock_cc2
avg_rename_power_cc2         0.1623 # avg power usage of rename unit_cc2
avg_bpred_power_cc2          0.4928 # avg power usage of bpred unit_cc2
avg_window_power_cc2         1.1631 # avg power usage of instruction window_cc2
avg_lsq_power_cc2            0.1111 # avg power usage of instruction lsq_cc2
avg_regfile_power_cc2        0.5598 # avg power usage of arch. regfile_cc2
avg_icache_power_cc2         1.4191 # avg power usage of icache_cc2
avg_dcache_power_cc2         1.4390 # avg power usage of dcache_cc2
avg_dcache2_power_cc2        0.0728 # avg power usage of dcache2_cc2
avg_alu_power_cc2            2.3081 # avg power usage of alu_cc2
avg_resultbus_power_cc2       0.6876 # avg power usage of resultbus_cc2
avg_clock_power_cc2          5.3322 # avg power usage of clock_cc2
fetch_stage_power_cc2  1058640917.7127 # total power usage of fetch stage_cc2
dispatch_stage_power_cc2 89881422.3878 # total power usage of dispatch stage_cc2
issue_stage_power_cc2  3201313292.6963 # total power usage of issue stage_cc2
avg_fetch_power_cc2          1.9119 # average power of fetch unit per cycle_cc2
avg_dispatch_power_cc2       0.1623 # average power of dispatch unit per cycle_cc2
avg_issue_power_cc2          5.7817 # average power of issue unit per cycle_cc2
total_power_cycle_cc2  7612236933.7314 # total power per cycle_cc2
avg_total_power_cycle_cc2      13.7480 # average total power per cycle_cc2
avg_total_power_insn_cc2       8.8491 # average total power per insn_cc2
rename_power_cc3       100442504.8214 # total power usage of rename unit_cc3
bpred_power_cc3        481000784.7125 # total power usage of bpred unit_cc3
window_power_cc3       664753029.3535 # total power usage of instruction window_cc3
lsq_power_cc3          106485807.4014 # total power usage of lsq_cc3
regfile_power_cc3      382631936.2827 # total power usage of arch. regfile_cc3
icache_power_cc3       844325828.4546 # total power usage of icache_cc3
dcache_power_cc3       1035036724.5350 # total power usage of dcache_cc3
dcache2_power_cc3      265447427.4843 # total power usage of dcache2_cc3
alu_power_cc3          1694377471.0992 # total power usage of alu_cc3
resultbus_power_cc3    418914839.3051 # total power usage of resultbus_cc3
clock_power_cc3        3634841861.1327 # total power usage of clock_cc3
avg_rename_power_cc3         0.1814 # avg power usage of rename unit_cc3
avg_bpred_power_cc3          0.8687 # avg power usage of bpred unit_cc3
avg_window_power_cc3         1.2006 # avg power usage of instruction window_cc3
avg_lsq_power_cc3            0.1923 # avg power usage of instruction lsq_cc3
avg_regfile_power_cc3        0.6910 # avg power usage of arch. regfile_cc3
avg_icache_power_cc3         1.5249 # avg power usage of icache_cc3
avg_dcache_power_cc3         1.8693 # avg power usage of dcache_cc3
avg_dcache2_power_cc3        0.4794 # avg power usage of dcache2_cc3
avg_alu_power_cc3            3.0601 # avg power usage of alu_cc3
avg_resultbus_power_cc3       0.7566 # avg power usage of resultbus_cc3
avg_clock_power_cc3          6.5647 # avg power usage of clock_cc3
fetch_stage_power_cc3  1325326613.1671 # total power usage of fetch stage_cc3
dispatch_stage_power_cc3 100442504.8214 # total power usage of dispatch stage_cc3
issue_stage_power_cc3  4185015299.1784 # total power usage of issue stage_cc3
avg_fetch_power_cc3          2.3936 # average power of fetch unit per cycle_cc3
avg_dispatch_power_cc3       0.1814 # average power of dispatch unit per cycle_cc3
avg_issue_power_cc3          7.5583 # average power of issue unit per cycle_cc3
total_power_cycle_cc3  9628258214.5822 # total power per cycle_cc3
avg_total_power_cycle_cc3      17.3890 # average total power per cycle_cc3
avg_total_power_insn_cc3      11.1927 # average total power per insn_cc3
total_rename_access       860180326 # total number accesses of rename unit
total_bpred_access        120663280 # total number accesses of bpred unit
total_window_access      3202571151 # total number accesses of instruction window
total_lsq_access          261916421 # total number accesses of load/store queue
total_regfile_access     1267861583 # total number accesses of arch. regfile
total_icache_access       885289259 # total number accesses of icache
total_dcache_access       261889864 # total number accesses of dcache
total_dcache2_access       19155823 # total number accesses of dcache2
total_alu_access          821649527 # total number accesses of alu
total_resultbus_access    907342119 # total number accesses of resultbus
avg_rename_access            1.5535 # avg number accesses of rename unit
avg_bpred_access             0.2179 # avg number accesses of bpred unit
avg_window_access            5.7840 # avg number accesses of instruction window
avg_lsq_access               0.4730 # avg number accesses of lsq
avg_regfile_access           2.2898 # avg number accesses of arch. regfile
avg_icache_access            1.5989 # avg number accesses of icache
avg_dcache_access            0.4730 # avg number accesses of dcache
avg_dcache2_access           0.0346 # avg number accesses of dcache2
avg_alu_access               1.4839 # avg number accesses of alu
avg_resultbus_access         1.6387 # avg number accesses of resultbus
max_rename_access                 4 # max number accesses of rename unit
max_bpred_access                  4 # max number accesses of bpred unit
max_window_access                16 # max number accesses of instruction window
max_lsq_access                    6 # max number accesses of load/store queue
max_regfile_access               11 # max number accesses of arch. regfile
max_icache_access                 4 # max number accesses of icache
max_dcache_access                 4 # max number accesses of dcache
max_dcache2_access                5 # max number accesses of dcache2
max_alu_access                    4 # max number accesses of alu
max_resultbus_access              9 # max number accesses of resultbus
max_cycle_power_cc1         46.9266 # maximum cycle power usage of cc1
max_cycle_power_cc2         32.1642 # maximum cycle power usage of cc2
max_cycle_power_cc3         33.8263 # maximum cycle power usage of cc3
sim_invalid_addrs                 2 # total non-speculative bogus addresses seen (debug var)
ld_text_base             0x00400000 # program text (code) segment base
ld_text_size                 124464 # program text (code) size in bytes
ld_data_base             0x10000000 # program initialized data segment base
ld_data_size                  13588 # program init'ed `.data' and uninit'ed `.bss' size in bytes
ld_stack_base            0x7fffc000 # program stack segment base (highest address in stack)
ld_stack_size                 16384 # program initial stack size
ld_prog_entry            0x00400140 # program entry point (initial PC)
ld_environ_base          0x7fff8000 # program environment base address address
ld_target_big_endian              0 # target executable endian-ness, non-zero if big endian
mem.page_count                  962 # total number of pages allocated
mem.page_mem                  3848k # total size of memory pages allocated
mem.ptab_misses                1275 # total first level page table misses
mem.ptab_accesses        5606574359 # total page table accesses
mem.ptab_miss_rate           0.0000 # first level page table miss rate

