sim-outorder: SimpleScalar/PISA Tool Set version 3.0 of August, 2003.
Copyright (c) 1994-2003 by Todd M. Austin, Ph.D. and SimpleScalar, LLC.
All Rights Reserved. This version of SimpleScalar is licensed for academic
non-commercial use.  No portion of this work may be used by any commercial
entity, or for any commercial purpose, without the prior written permission
of SimpleScalar, LLC (info@simplescalar.com).


Processor Parameters:
Issue Width: 4
Window Size: 16
Number of Virtual Registers: 32
Number of Physical Registers: 16
Datapath Width: 64
Total Power Consumption: 73.7888
Branch Predictor Power Consumption: 4.52371  (6.3%)
 branch target buffer power (W): 4.16837
 local predict power (W): 0.088557
 global predict power (W): 0.0996078
 chooser power (W): 0.0702439
 RAS power (W): 0.0969383
Rename Logic Power Consumption: 0.417965  (0.582%)
 Instruction Decode Power (W): 0.0159915
 RAT decode_power (W): 0.113514
 RAT wordline_power (W): 0.0307815
 RAT bitline_power (W): 0.246771
 DCL Comparators (W): 0.0109075
Instruction Window Power Consumption: 2.20432  (3.07%)
 tagdrive (W): 0.0943488
 tagmatch (W): 0.033695
 Selection Logic (W): 0.0134217
 decode_power (W): 0.0532503
 wordline_power (W): 0.0844643
 bitline_power (W): 1.92514
Load/Store Queue Power Consumption: 0.96318  (1.34%)
 tagdrive (W): 0.457232
 tagmatch (W): 0.100774
 decode_power (W): 0.00799577
 wordline_power (W): 0.0150119
 bitline_power (W): 0.382166
Arch. Register File Power Consumption: 3.57247  (4.98%)
 decode_power (W): 0.113514
 wordline_power (W): 0.0844643
 bitline_power (W): 3.37449
Result Bus Power Consumption: 2.29754  (3.2%)
Total Clock Power: 26.0975  (36.4%)
Int ALU Power: 4.66013  (6.49%)
FP ALU Power: 14.281  (19.9%)
Instruction Cache Power Consumption: 2.21363  (3.08%)
 decode_power (W): 0.779481
 wordline_power (W): 0.028656
 bitline_power (W): 0.886372
 senseamp_power (W): 0.096
 tagarray_power (W): 0.423116
Itlb_power (W): 0.263317 (0.367%)
Data Cache Power Consumption: 5.18303  (7.22%)
 decode_power (W): 0.651055
 wordline_power (W): 0.196735
 bitline_power (W): 2.71235
 senseamp_power (W): 0.768
 tagarray_power (W): 0.854886
Dtlb_power (W): 0.901877 (1.26%)
Level 2 Cache Power Consumption: 4.2091 (5.86%)
 decode_power (W): 0.41817
 wordline_power (W): 0.0430878
 bitline_power (W): 3.0244
 senseamp_power (W): 0.192
 tagarray_power (W): 0.531433
sim: command line: sim-outorder -redir:sim /home/ubuntu/ece568-single-core-dse/results/bp-2lev-PAg-l1-2.out -config /home/ubuntu/ece568-single-core-dse/configs/step1-bpred/bp-2lev-PAg-l1-2.cfg eeg 

sim: simulation started @ Sun Mar  6 17:14:57 2016, options follow:

sim-outorder: This simulator implements a very detailed out-of-order issue
superscalar processor with a two-level memory system and speculative
execution support.  This simulator is a performance simulator, tracking the
latency of all pipeline operations.

# -config                     # load configuration from a file
# -dumpconfig                 # dump configuration to a file
# -h                    false # print help message    
# -v                    false # verbose operation     
# -d                    false # enable debug message  
# -i                    false # start in Dlite debugger
-seed                       1 # random number generator seed (0 for timer seed)
# -q                    false # initialize and terminate immediately
# -chkpt               <null> # restore EIO trace execution from <fname>
# -redir:sim     /home/ubuntu/ece568-single-core-dse/results/bp-2lev-PAg-l1-2.out # redirect simulator output to file (non-interactive only)
# -redir:prog          <null> # redirect simulated program output to file
-nice                       0 # simulator scheduling priority
-max:inst                   0 # maximum number of inst's to execute
-fastfwd                    0 # number of insts skipped before timing starts
# -ptrace              <null> # generate pipetrace, i.e., <fname|stdout|stderr> <range>
-fetch:ifqsize              4 # instruction fetch queue size (in insts)
-fetch:mplat                3 # extra branch mis-prediction latency
-fetch:speed                1 # speed of front-end of machine relative to execution core
-bpred                   2lev # branch predictor type {nottaken|taken|perfect|bimod|2lev|comb}
-bpred:bimod     2048 # bimodal predictor config (<table size>)
-bpred:2lev      2 1024 8 0 # 2-level predictor config (<l1size> <l2size> <hist_size> <xor>)
-bpred:comb      1024 # combining predictor config (<meta_table_size>)
-bpred:ras                  8 # return address stack size (0 for no return stack)
-bpred:btb       512 4 # BTB config (<num_sets> <associativity>)
# -bpred:spec_update       <null> # speculative predictors update in {ID|WB} (default non-spec)
-decode:width               4 # instruction decode B/W (insts/cycle)
-issue:width                4 # instruction issue B/W (insts/cycle)
-issue:inorder          false # run pipeline with in-order issue
-issue:wrongpath         true # issue instructions down wrong execution paths
-commit:width               4 # instruction commit B/W (insts/cycle)
-ruu:size                  16 # register update unit (RUU) size
-lsq:size                   8 # load/store queue (LSQ) size
-cache:dl1       dl1:128:32:4:l # l1 data cache config, i.e., {<config>|none}
-cache:dl1lat               1 # l1 data cache hit latency (in cycles)
-cache:dl2       ul2:1024:64:4:l # l2 data cache config, i.e., {<config>|none}
-cache:dl2lat               6 # l2 data cache hit latency (in cycles)
-cache:il1       il1:512:32:1:l # l1 inst cache config, i.e., {<config>|dl1|dl2|none}
-cache:il1lat               1 # l1 instruction cache hit latency (in cycles)
-cache:il2                dl2 # l2 instruction cache config, i.e., {<config>|dl2|none}
-cache:il2lat               6 # l2 instruction cache hit latency (in cycles)
-cache:flush            false # flush caches on system calls
-cache:icompress        false # convert 64-bit inst addresses to 32-bit inst equivalents
-mem:lat         18 2 # memory access latency (<first_chunk> <inter_chunk>)
-mem:width                  8 # memory access bus width (in bytes)
-tlb:itlb        itlb:16:4096:4:l # instruction TLB config, i.e., {<config>|none}
-tlb:dtlb        dtlb:32:4096:4:l # data TLB config, i.e., {<config>|none}
-tlb:lat                   30 # inst/data TLB miss latency (in cycles)
-res:ialu                   4 # total number of integer ALU's available
-res:imult                  1 # total number of integer multiplier/dividers available
-res:memport                2 # total number of memory system ports available (to CPU)
-res:fpalu                  4 # total number of floating point ALU's available
-res:fpmult                 1 # total number of floating point multiplier/dividers available
# -pcstat              <null> # profile stat(s) against text addr's (mult uses ok)
-bugcompat              false # operate in backward-compatible bugs mode (for testing only)

  Pipetrace range arguments are formatted as follows:

    {{@|#}<start>}:{{@|#|+}<end>}

  Both ends of the range are optional, if neither are specified, the entire
  execution is traced.  Ranges that start with a `@' designate an address
  range to be traced, those that start with an `#' designate a cycle count
  range.  All other range values represent an instruction count range.  The
  second argument, if specified with a `+', indicates a value relative
  to the first argument, e.g., 1000:+100 == 1000:1100.  Program symbols may
  be used in all contexts.

    Examples:   -ptrace FOO.trc #0:#1000
                -ptrace BAR.trc @2000:
                -ptrace BLAH.trc :1500
                -ptrace UXXE.trc :
                -ptrace FOOBAR.trc @main:+278

  Branch predictor configuration examples for 2-level predictor:
    Configurations:   N, M, W, X
      N   # entries in first level (# of shift register(s))
      W   width of shift register(s)
      M   # entries in 2nd level (# of counters, or other FSM)
      X   (yes-1/no-0) xor history and address for 2nd level index
    Sample predictors:
      GAg     : 1, W, 2^W, 0
      GAp     : 1, W, M (M > 2^W), 0
      PAg     : N, W, 2^W, 0
      PAp     : N, W, M (M == 2^(N+W)), 0
      gshare  : 1, W, 2^W, 1
  Predictor `comb' combines a bimodal and a 2-level predictor.

  The cache config parameter <config> has the following format:

    <name>:<nsets>:<bsize>:<assoc>:<repl>

    <name>   - name of the cache being defined
    <nsets>  - number of sets in the cache
    <bsize>  - block size of the cache
    <assoc>  - associativity of the cache
    <repl>   - block replacement strategy, 'l'-LRU, 'f'-FIFO, 'r'-random

    Examples:   -cache:dl1 dl1:4096:32:1:l
                -dtlb dtlb:128:4096:32:r

  Cache levels can be unified by pointing a level of the instruction cache
  hierarchy at the data cache hiearchy using the "dl1" and "dl2" cache
  configuration arguments.  Most sensible combinations are supported, e.g.,

    A unified l2 cache (il2 is pointed at dl2):
      -cache:il1 il1:128:64:1:l -cache:il2 dl2
      -cache:dl1 dl1:256:32:1:l -cache:dl2 ul2:1024:64:2:l

    Or, a fully unified cache hierarchy (il1 pointed at dl1):
      -cache:il1 dl1
      -cache:dl1 ul1:256:32:1:l -cache:dl2 ul2:1024:64:2:l



sim: ** starting performance simulation **

sim: ** simulation statistics **
sim_num_insn              842550792 # total number of instructions committed
sim_num_refs              255032800 # total number of loads and stores committed
sim_num_loads             171016145 # total number of loads committed
sim_num_stores         84016655.0000 # total number of stores committed
sim_num_branches          120522975 # total number of branches committed
sim_elapsed_time               1102 # total simulation time in seconds
sim_inst_rate           764565.1470 # simulation speed (in insts/sec)
sim_total_insn            881521131 # total number of instructions executed
sim_total_refs            266555568 # total number of loads and stores executed
sim_total_loads           182502443 # total number of loads executed
sim_total_stores       84053125.0000 # total number of stores executed
sim_total_branches        126406316 # total number of branches executed
sim_cycle                 591053403 # total simulation time in cycles
sim_IPC                      1.4255 # instructions per cycle
sim_CPI                      0.7015 # cycles per instruction
sim_exec_BW                  1.4914 # total instructions (mis-spec + committed) per cycle
sim_IPB                      6.9908 # instruction per branch
IFQ_count                1640968612 # cumulative IFQ occupancy
IFQ_fcount                352388784 # cumulative IFQ full count
ifq_occupancy                2.7763 # avg IFQ occupancy (insn's)
ifq_rate                     1.4914 # avg IFQ dispatch rate (insn/cycle)
ifq_latency                  1.8615 # avg IFQ occupant latency (cycle's)
ifq_full                     0.5962 # fraction of time (cycle's) IFQ was full
RUU_count                6769702096 # cumulative RUU occupancy
RUU_fcount                220121664 # cumulative RUU full count
ruu_occupancy               11.4536 # avg RUU occupancy (insn's)
ruu_rate                     1.4914 # avg RUU dispatch rate (insn/cycle)
ruu_latency                  7.6796 # avg RUU occupant latency (cycle's)
ruu_full                     0.3724 # fraction of time (cycle's) RUU was full
LSQ_count                2279270447 # cumulative LSQ occupancy
LSQ_fcount                134539456 # cumulative LSQ full count
lsq_occupancy                3.8563 # avg LSQ occupancy (insn's)
lsq_rate                     1.4914 # avg LSQ dispatch rate (insn/cycle)
lsq_latency                  2.5856 # avg LSQ occupant latency (cycle's)
lsq_full                     0.2276 # fraction of time (cycle's) LSQ was full
sim_slip                 9935523004 # total number of slip cycles
avg_sim_slip                11.7922 # the average slip between issue and retirement
bpred_2lev.lookups        129097584 # total number of bpred lookups
bpred_2lev.updates        120522975 # total number of updates
bpred_2lev.addr_hits      110833094 # total number of address-predicted hits
bpred_2lev.dir_hits       110839185 # total number of direction-predicted hits (includes addr-hits)
bpred_2lev.misses           9683790 # total number of misses
bpred_2lev.jr_hits         28423703 # total number of address-predicted hits for JR's
bpred_2lev.jr_seen         28430346 # total number of JR's seen
bpred_2lev.jr_non_ras_hits.PP           39 # total number of address-predicted hits for non-RAS JR's
bpred_2lev.jr_non_ras_seen.PP         1276 # total number of non-RAS JR's seen
bpred_2lev.bpred_addr_rate    0.9196 # branch address-prediction rate (i.e., addr-hits/updates)
bpred_2lev.bpred_dir_rate    0.9197 # branch direction-prediction rate (i.e., all-hits/updates)
bpred_2lev.bpred_jr_rate    0.9998 # JR address-prediction rate (i.e., JR addr-hits/JRs seen)
bpred_2lev.bpred_jr_non_ras_rate.PP    0.0306 # non-RAS JR addr-pred rate (ie, non-RAS JR hits/JRs seen)
bpred_2lev.retstack_pushes     30426165 # total number of address pushed onto ret-addr stack
bpred_2lev.retstack_pops     29838971 # total number of address popped off of ret-addr stack
bpred_2lev.used_ras.PP     28429070 # total number of RAS predictions used
bpred_2lev.ras_hits.PP     28423664 # total number of RAS hits
bpred_2lev.ras_rate.PP    0.9998 # RAS prediction rate (i.e., RAS hits/used RAS)
il1.accesses              914992165 # total number of accesses
il1.hits                  896720796 # total number of hits
il1.misses                 18271369 # total number of misses
il1.replacements           18270857 # total number of replacements
il1.writebacks                    0 # total number of writebacks
il1.invalidations                 0 # total number of invalidations
il1.miss_rate                0.0200 # miss rate (i.e., misses/ref)
il1.repl_rate                0.0200 # replacement rate (i.e., repls/ref)
il1.wb_rate                  0.0000 # writeback rate (i.e., wrbks/ref)
il1.inv_rate                 0.0000 # invalidation rate (i.e., invs/ref)
dl1.accesses              263963076 # total number of accesses
dl1.hits                  263434562 # total number of hits
dl1.misses                   528514 # total number of misses
dl1.replacements             528002 # total number of replacements
dl1.writebacks               330559 # total number of writebacks
dl1.invalidations                 0 # total number of invalidations
dl1.miss_rate                0.0020 # miss rate (i.e., misses/ref)
dl1.repl_rate                0.0020 # replacement rate (i.e., repls/ref)
dl1.wb_rate                  0.0013 # writeback rate (i.e., wrbks/ref)
dl1.inv_rate                 0.0000 # invalidation rate (i.e., invs/ref)
ul2.accesses               19130442 # total number of accesses
ul2.hits                   19068205 # total number of hits
ul2.misses                    62237 # total number of misses
ul2.replacements              58141 # total number of replacements
ul2.writebacks                57097 # total number of writebacks
ul2.invalidations                 0 # total number of invalidations
ul2.miss_rate                0.0033 # miss rate (i.e., misses/ref)
ul2.repl_rate                0.0030 # replacement rate (i.e., repls/ref)
ul2.wb_rate                  0.0030 # writeback rate (i.e., wrbks/ref)
ul2.inv_rate                 0.0000 # invalidation rate (i.e., invs/ref)
itlb.accesses             914992165 # total number of accesses
itlb.hits                 914992134 # total number of hits
itlb.misses                      31 # total number of misses
itlb.replacements                 0 # total number of replacements
itlb.writebacks                   0 # total number of writebacks
itlb.invalidations                0 # total number of invalidations
itlb.miss_rate               0.0000 # miss rate (i.e., misses/ref)
itlb.repl_rate               0.0000 # replacement rate (i.e., repls/ref)
itlb.wb_rate                 0.0000 # writeback rate (i.e., wrbks/ref)
itlb.inv_rate                0.0000 # invalidation rate (i.e., invs/ref)
dtlb.accesses             263975612 # total number of accesses
dtlb.hits                 263974230 # total number of hits
dtlb.misses                    1382 # total number of misses
dtlb.replacements              1254 # total number of replacements
dtlb.writebacks                   0 # total number of writebacks
dtlb.invalidations                0 # total number of invalidations
dtlb.miss_rate               0.0000 # miss rate (i.e., misses/ref)
dtlb.repl_rate               0.0000 # replacement rate (i.e., repls/ref)
dtlb.wb_rate                 0.0000 # writeback rate (i.e., wrbks/ref)
dtlb.inv_rate                0.0000 # invalidation rate (i.e., invs/ref)
rename_power           247039927.2417 # total power usage of rename unit
bpred_power            2673755576.7959 # total power usage of bpred unit
window_power           1302870513.7224 # total power usage of instruction window
lsq_power              569290811.6228 # total power usage of load/store queue
regfile_power          2111521789.6094 # total power usage of arch. regfile
icache_power           1464004852.1089 # total power usage of icache
dcache_power           3596504526.1840 # total power usage of dcache
dcache2_power          2487800200.0669 # total power usage of dcache2
alu_power              11195246211.2459 # total power usage of alu
falu_power             8440860221.8775 # total power usage of falu
resultbus_power        1357970541.0850 # total power usage of resultbus
clock_power            15425000075.3597 # total power usage of clock
avg_rename_power             0.4180 # avg power usage of rename unit
avg_bpred_power              4.5237 # avg power usage of bpred unit
avg_window_power             2.2043 # avg power usage of instruction window
avg_lsq_power                0.9632 # avg power usage of lsq
avg_regfile_power            3.5725 # avg power usage of arch. regfile
avg_icache_power             2.4769 # avg power usage of icache
avg_dcache_power             6.0849 # avg power usage of dcache
avg_dcache2_power            4.2091 # avg power usage of dcache2
avg_alu_power               18.9412 # avg power usage of alu
avg_falu_power              14.2810 # avg power usage of falu
avg_resultbus_power          2.2975 # avg power usage of resultbus
avg_clock_power             26.0975 # avg power usage of clock
fetch_stage_power      4137760428.9048 # total power usage of fetch stage
dispatch_stage_power   247039927.2417 # total power usage of dispatch stage
issue_stage_power      20509682803.9271 # total power usage of issue stage
avg_fetch_power              7.0007 # average power of fetch unit per cycle
avg_dispatch_power           0.4180 # average power of dispatch unit per cycle
avg_issue_power             34.7002 # average power of issue unit per cycle
total_power            42431005025.0427 # total power per cycle
avg_total_power_cycle       71.7888 # average total power per cycle
avg_total_power_cycle_nofp_nod2      53.2986 # average total power per cycle
avg_total_power_insn        48.1338 # average total power per insn
avg_total_power_insn_nofp_nod2      35.7363 # average total power per insn
rename_power_cc1       129389366.7191 # total power usage of rename unit_cc1
bpred_power_cc1        439086465.1830 # total power usage of bpred unit_cc1
window_power_cc1       960240332.0101 # total power usage of instruction window_cc1
lsq_power_cc1          78591932.5320 # total power usage of lsq_cc1
regfile_power_cc1      1067057199.8849 # total power usage of arch. regfile_cc1
icache_power_cc1       811972088.2715 # total power usage of icache_cc1
dcache_power_cc1       1000246266.4486 # total power usage of dcache_cc1
dcache2_power_cc1      79122310.9741 # total power usage of dcache2_cc1
alu_power_cc1          3292532416.3057 # total power usage of alu_cc1
resultbus_power_cc1    665799412.7989 # total power usage of resultbus_cc1
clock_power_cc1        5421689805.5396 # total power usage of clock_cc1
avg_rename_power_cc1         0.2189 # avg power usage of rename unit_cc1
avg_bpred_power_cc1          0.7429 # avg power usage of bpred unit_cc1
avg_window_power_cc1         1.6246 # avg power usage of instruction window_cc1
avg_lsq_power_cc1            0.1330 # avg power usage of lsq_cc1
avg_regfile_power_cc1        1.8053 # avg power usage of arch. regfile_cc1
avg_icache_power_cc1         1.3738 # avg power usage of icache_cc1
avg_dcache_power_cc1         1.6923 # avg power usage of dcache_cc1
avg_dcache2_power_cc1        0.1339 # avg power usage of dcache2_cc1
avg_alu_power_cc1            5.5706 # avg power usage of alu_cc1
avg_resultbus_power_cc1       1.1265 # avg power usage of resultbus_cc1
avg_clock_power_cc1          9.1729 # avg power usage of clock_cc1
fetch_stage_power_cc1  1251058553.4546 # total power usage of fetch stage_cc1
dispatch_stage_power_cc1 129389366.7191 # total power usage of dispatch stage_cc1
issue_stage_power_cc1  6076532671.0693 # total power usage of issue stage_cc1
avg_fetch_power_cc1          2.1167 # average power of fetch unit per cycle_cc1
avg_dispatch_power_cc1       0.2189 # average power of dispatch unit per cycle_cc1
avg_issue_power_cc1         10.2809 # average power of issue unit per cycle_cc1
total_power_cycle_cc1  13945727596.6675 # total power per cycle_cc1
avg_total_power_cycle_cc1      23.5947 # average total power per cycle_cc1
avg_total_power_insn_cc1      15.8201 # average total power per insn_cc1
rename_power_cc2       92104013.1135 # total power usage of rename unit_cc2
bpred_power_cc2        272605636.9220 # total power usage of bpred unit_cc2
window_power_cc2       656207940.0774 # total power usage of instruction window_cc2
lsq_power_cc2          62080931.0156 # total power usage of lsq_cc2
regfile_power_cc2      310099414.2201 # total power usage of arch. regfile_cc2
icache_power_cc2       811972088.2715 # total power usage of icache_cc2
dcache_power_cc2       803095287.2469 # total power usage of dcache_cc2
dcache2_power_cc2      40260928.1281 # total power usage of dcache2_cc2
alu_power_cc2          1305839353.8670 # total power usage of alu_cc2
resultbus_power_cc2    384707870.4996 # total power usage of resultbus_cc2
clock_power_cc2        3015317454.9840 # total power usage of clock_cc2
avg_rename_power_cc2         0.1558 # avg power usage of rename unit_cc2
avg_bpred_power_cc2          0.4612 # avg power usage of bpred unit_cc2
avg_window_power_cc2         1.1102 # avg power usage of instruction window_cc2
avg_lsq_power_cc2            0.1050 # avg power usage of instruction lsq_cc2
avg_regfile_power_cc2        0.5247 # avg power usage of arch. regfile_cc2
avg_icache_power_cc2         1.3738 # avg power usage of icache_cc2
avg_dcache_power_cc2         1.3588 # avg power usage of dcache_cc2
avg_dcache2_power_cc2        0.0681 # avg power usage of dcache2_cc2
avg_alu_power_cc2            2.2093 # avg power usage of alu_cc2
avg_resultbus_power_cc2       0.6509 # avg power usage of resultbus_cc2
avg_clock_power_cc2          5.1016 # avg power usage of clock_cc2
fetch_stage_power_cc2  1084577725.1935 # total power usage of fetch stage_cc2
dispatch_stage_power_cc2 92104013.1135 # total power usage of dispatch stage_cc2
issue_stage_power_cc2  3252192310.8345 # total power usage of issue stage_cc2
avg_fetch_power_cc2          1.8350 # average power of fetch unit per cycle_cc2
avg_dispatch_power_cc2       0.1558 # average power of dispatch unit per cycle_cc2
avg_issue_power_cc2          5.5024 # average power of issue unit per cycle_cc2
total_power_cycle_cc2  7754290918.3457 # total power per cycle_cc2
avg_total_power_cycle_cc2      13.1194 # average total power per cycle_cc2
avg_total_power_insn_cc2       8.7965 # average total power per insn_cc2
rename_power_cc3       103869069.1183 # total power usage of rename unit_cc3
bpred_power_cc3        498083523.0192 # total power usage of bpred unit_cc3
window_power_cc3       679877940.1876 # total power usage of instruction window_cc3
lsq_power_cc3          110653451.9254 # total power usage of lsq_cc3
regfile_power_cc3      390522234.6688 # total power usage of arch. regfile_cc3
icache_power_cc3       877175360.2531 # total power usage of icache_cc3
dcache_power_cc3       1063809399.4040 # total power usage of dcache_cc3
dcache2_power_cc3      281129078.4262 # total power usage of dcache2_cc3
alu_power_cc3          2096110729.7171 # total power usage of alu_cc3
resultbus_power_cc3    430054445.8201 # total power usage of resultbus_cc3
clock_power_cc3        3979210768.5999 # total power usage of clock_cc3
avg_rename_power_cc3         0.1757 # avg power usage of rename unit_cc3
avg_bpred_power_cc3          0.8427 # avg power usage of bpred unit_cc3
avg_window_power_cc3         1.1503 # avg power usage of instruction window_cc3
avg_lsq_power_cc3            0.1872 # avg power usage of instruction lsq_cc3
avg_regfile_power_cc3        0.6607 # avg power usage of arch. regfile_cc3
avg_icache_power_cc3         1.4841 # avg power usage of icache_cc3
avg_dcache_power_cc3         1.7999 # avg power usage of dcache_cc3
avg_dcache2_power_cc3        0.4756 # avg power usage of dcache2_cc3
avg_alu_power_cc3            3.5464 # avg power usage of alu_cc3
avg_resultbus_power_cc3       0.7276 # avg power usage of resultbus_cc3
avg_clock_power_cc3          6.7324 # avg power usage of clock_cc3
fetch_stage_power_cc3  1375258883.2723 # total power usage of fetch stage_cc3
dispatch_stage_power_cc3 103869069.1183 # total power usage of dispatch stage_cc3
issue_stage_power_cc3  4661635045.4805 # total power usage of issue stage_cc3
avg_fetch_power_cc3          2.3268 # average power of fetch unit per cycle_cc3
avg_dispatch_power_cc3       0.1757 # average power of dispatch unit per cycle_cc3
avg_issue_power_cc3          7.8870 # average power of issue unit per cycle_cc3
total_power_cycle_cc3  10510496001.1396 # total power per cycle_cc3
avg_total_power_cycle_cc3      17.7827 # average total power per cycle_cc3
avg_total_power_insn_cc3      11.9231 # average total power per insn_cc3
total_rename_access       881450893 # total number accesses of rename unit
total_bpred_access        120522975 # total number accesses of bpred unit
total_window_access      3258076022 # total number accesses of instruction window
total_lsq_access          263995703 # total number accesses of load/store queue
total_regfile_access     1271842583 # total number accesses of arch. regfile
total_icache_access       915718268 # total number accesses of icache
total_dcache_access       263963076 # total number accesses of dcache
total_dcache2_access       19130442 # total number accesses of dcache2
total_alu_access          837813650 # total number accesses of alu
total_resultbus_access    919800908 # total number accesses of resultbus
avg_rename_access            1.4913 # avg number accesses of rename unit
avg_bpred_access             0.2039 # avg number accesses of bpred unit
avg_window_access            5.5123 # avg number accesses of instruction window
avg_lsq_access               0.4467 # avg number accesses of lsq
avg_regfile_access           2.1518 # avg number accesses of arch. regfile
avg_icache_access            1.5493 # avg number accesses of icache
avg_dcache_access            0.4466 # avg number accesses of dcache
avg_dcache2_access           0.0324 # avg number accesses of dcache2
avg_alu_access               1.4175 # avg number accesses of alu
avg_resultbus_access         1.5562 # avg number accesses of resultbus
max_rename_access                 4 # max number accesses of rename unit
max_bpred_access                  4 # max number accesses of bpred unit
max_window_access                17 # max number accesses of instruction window
max_lsq_access                    6 # max number accesses of load/store queue
max_regfile_access               12 # max number accesses of arch. regfile
max_icache_access                 4 # max number accesses of icache
max_dcache_access                 4 # max number accesses of dcache
max_dcache2_access                5 # max number accesses of dcache2
max_alu_access                    4 # max number accesses of alu
max_resultbus_access              9 # max number accesses of resultbus
max_cycle_power_cc1         54.2725 # maximum cycle power usage of cc1
max_cycle_power_cc2         32.7305 # maximum cycle power usage of cc2
max_cycle_power_cc3         35.1014 # maximum cycle power usage of cc3
sim_invalid_addrs                 2 # total non-speculative bogus addresses seen (debug var)
ld_text_base             0x00400000 # program text (code) segment base
ld_text_size                 124464 # program text (code) size in bytes
ld_data_base             0x10000000 # program initialized data segment base
ld_data_size                  13588 # program init'ed `.data' and uninit'ed `.bss' size in bytes
ld_stack_base            0x7fffc000 # program stack segment base (highest address in stack)
ld_stack_size                 16384 # program initial stack size
ld_prog_entry            0x00400140 # program entry point (initial PC)
ld_environ_base          0x7fff8000 # program environment base address address
ld_target_big_endian              0 # target executable endian-ness, non-zero if big endian
mem.page_count                  962 # total number of pages allocated
mem.page_mem                  3848k # total size of memory pages allocated
mem.ptab_misses                1359 # total first level page table misses
mem.ptab_accesses        5730465639 # total page table accesses
mem.ptab_miss_rate           0.0000 # first level page table miss rate

