sim-outorder: SimpleScalar/PISA Tool Set version 3.0 of August, 2003.
Copyright (c) 1994-2003 by Todd M. Austin, Ph.D. and SimpleScalar, LLC.
All Rights Reserved. This version of SimpleScalar is licensed for academic
non-commercial use.  No portion of this work may be used by any commercial
entity, or for any commercial purpose, without the prior written permission
of SimpleScalar, LLC (info@simplescalar.com).


Processor Parameters:
Issue Width: 4
Window Size: 16
Number of Virtual Registers: 32
Number of Physical Registers: 16
Datapath Width: 64
Total Power Consumption: 73.7882
Branch Predictor Power Consumption: 4.52313  (6.3%)
 branch target buffer power (W): 4.16837
 local predict power (W): 0.0879711
 global predict power (W): 0.0996078
 chooser power (W): 0.0702439
 RAS power (W): 0.0969383
Rename Logic Power Consumption: 0.417965  (0.582%)
 Instruction Decode Power (W): 0.0159915
 RAT decode_power (W): 0.113514
 RAT wordline_power (W): 0.0307815
 RAT bitline_power (W): 0.246771
 DCL Comparators (W): 0.0109075
Instruction Window Power Consumption: 2.20432  (3.07%)
 tagdrive (W): 0.0943488
 tagmatch (W): 0.033695
 Selection Logic (W): 0.0134217
 decode_power (W): 0.0532503
 wordline_power (W): 0.0844643
 bitline_power (W): 1.92514
Load/Store Queue Power Consumption: 0.96318  (1.34%)
 tagdrive (W): 0.457232
 tagmatch (W): 0.100774
 decode_power (W): 0.00799577
 wordline_power (W): 0.0150119
 bitline_power (W): 0.382166
Arch. Register File Power Consumption: 3.57247  (4.98%)
 decode_power (W): 0.113514
 wordline_power (W): 0.0844643
 bitline_power (W): 3.37449
Result Bus Power Consumption: 2.29754  (3.2%)
Total Clock Power: 26.0975  (36.4%)
Int ALU Power: 4.66013  (6.49%)
FP ALU Power: 14.281  (19.9%)
Instruction Cache Power Consumption: 2.21363  (3.08%)
 decode_power (W): 0.779481
 wordline_power (W): 0.028656
 bitline_power (W): 0.886372
 senseamp_power (W): 0.096
 tagarray_power (W): 0.423116
Itlb_power (W): 0.263317 (0.367%)
Data Cache Power Consumption: 5.18303  (7.22%)
 decode_power (W): 0.651055
 wordline_power (W): 0.196735
 bitline_power (W): 2.71235
 senseamp_power (W): 0.768
 tagarray_power (W): 0.854886
Dtlb_power (W): 0.901877 (1.26%)
Level 2 Cache Power Consumption: 4.2091 (5.86%)
 decode_power (W): 0.41817
 wordline_power (W): 0.0430878
 bitline_power (W): 3.0244
 senseamp_power (W): 0.192
 tagarray_power (W): 0.531433
sim: command line: sim-outorder -redir:sim /home/ubuntu/ece568-single-core-dse/results/bp-2lev-xor.out -config /home/ubuntu/ece568-single-core-dse/configs/step1-bpred/bp-2lev-xor.cfg eeg 

sim: simulation started @ Sun Mar  6 16:39:04 2016, options follow:

sim-outorder: This simulator implements a very detailed out-of-order issue
superscalar processor with a two-level memory system and speculative
execution support.  This simulator is a performance simulator, tracking the
latency of all pipeline operations.

# -config                     # load configuration from a file
# -dumpconfig                 # dump configuration to a file
# -h                    false # print help message    
# -v                    false # verbose operation     
# -d                    false # enable debug message  
# -i                    false # start in Dlite debugger
-seed                       1 # random number generator seed (0 for timer seed)
# -q                    false # initialize and terminate immediately
# -chkpt               <null> # restore EIO trace execution from <fname>
# -redir:sim     /home/ubuntu/ece568-single-core-dse/results/bp-2lev-xor.out # redirect simulator output to file (non-interactive only)
# -redir:prog          <null> # redirect simulated program output to file
-nice                       0 # simulator scheduling priority
-max:inst                   0 # maximum number of inst's to execute
-fastfwd                    0 # number of insts skipped before timing starts
# -ptrace              <null> # generate pipetrace, i.e., <fname|stdout|stderr> <range>
-fetch:ifqsize              4 # instruction fetch queue size (in insts)
-fetch:mplat                3 # extra branch mis-prediction latency
-fetch:speed                1 # speed of front-end of machine relative to execution core
-bpred                   2lev # branch predictor type {nottaken|taken|perfect|bimod|2lev|comb}
-bpred:bimod     2048 # bimodal predictor config (<table size>)
-bpred:2lev      1 1024 8 1 # 2-level predictor config (<l1size> <l2size> <hist_size> <xor>)
-bpred:comb      1024 # combining predictor config (<meta_table_size>)
-bpred:ras                  8 # return address stack size (0 for no return stack)
-bpred:btb       512 4 # BTB config (<num_sets> <associativity>)
# -bpred:spec_update       <null> # speculative predictors update in {ID|WB} (default non-spec)
-decode:width               4 # instruction decode B/W (insts/cycle)
-issue:width                4 # instruction issue B/W (insts/cycle)
-issue:inorder          false # run pipeline with in-order issue
-issue:wrongpath         true # issue instructions down wrong execution paths
-commit:width               4 # instruction commit B/W (insts/cycle)
-ruu:size                  16 # register update unit (RUU) size
-lsq:size                   8 # load/store queue (LSQ) size
-cache:dl1       dl1:128:32:4:l # l1 data cache config, i.e., {<config>|none}
-cache:dl1lat               1 # l1 data cache hit latency (in cycles)
-cache:dl2       ul2:1024:64:4:l # l2 data cache config, i.e., {<config>|none}
-cache:dl2lat               6 # l2 data cache hit latency (in cycles)
-cache:il1       il1:512:32:1:l # l1 inst cache config, i.e., {<config>|dl1|dl2|none}
-cache:il1lat               1 # l1 instruction cache hit latency (in cycles)
-cache:il2                dl2 # l2 instruction cache config, i.e., {<config>|dl2|none}
-cache:il2lat               6 # l2 instruction cache hit latency (in cycles)
-cache:flush            false # flush caches on system calls
-cache:icompress        false # convert 64-bit inst addresses to 32-bit inst equivalents
-mem:lat         18 2 # memory access latency (<first_chunk> <inter_chunk>)
-mem:width                  8 # memory access bus width (in bytes)
-tlb:itlb        itlb:16:4096:4:l # instruction TLB config, i.e., {<config>|none}
-tlb:dtlb        dtlb:32:4096:4:l # data TLB config, i.e., {<config>|none}
-tlb:lat                   30 # inst/data TLB miss latency (in cycles)
-res:ialu                   4 # total number of integer ALU's available
-res:imult                  1 # total number of integer multiplier/dividers available
-res:memport                2 # total number of memory system ports available (to CPU)
-res:fpalu                  4 # total number of floating point ALU's available
-res:fpmult                 1 # total number of floating point multiplier/dividers available
# -pcstat              <null> # profile stat(s) against text addr's (mult uses ok)
-bugcompat              false # operate in backward-compatible bugs mode (for testing only)

  Pipetrace range arguments are formatted as follows:

    {{@|#}<start>}:{{@|#|+}<end>}

  Both ends of the range are optional, if neither are specified, the entire
  execution is traced.  Ranges that start with a `@' designate an address
  range to be traced, those that start with an `#' designate a cycle count
  range.  All other range values represent an instruction count range.  The
  second argument, if specified with a `+', indicates a value relative
  to the first argument, e.g., 1000:+100 == 1000:1100.  Program symbols may
  be used in all contexts.

    Examples:   -ptrace FOO.trc #0:#1000
                -ptrace BAR.trc @2000:
                -ptrace BLAH.trc :1500
                -ptrace UXXE.trc :
                -ptrace FOOBAR.trc @main:+278

  Branch predictor configuration examples for 2-level predictor:
    Configurations:   N, M, W, X
      N   # entries in first level (# of shift register(s))
      W   width of shift register(s)
      M   # entries in 2nd level (# of counters, or other FSM)
      X   (yes-1/no-0) xor history and address for 2nd level index
    Sample predictors:
      GAg     : 1, W, 2^W, 0
      GAp     : 1, W, M (M > 2^W), 0
      PAg     : N, W, 2^W, 0
      PAp     : N, W, M (M == 2^(N+W)), 0
      gshare  : 1, W, 2^W, 1
  Predictor `comb' combines a bimodal and a 2-level predictor.

  The cache config parameter <config> has the following format:

    <name>:<nsets>:<bsize>:<assoc>:<repl>

    <name>   - name of the cache being defined
    <nsets>  - number of sets in the cache
    <bsize>  - block size of the cache
    <assoc>  - associativity of the cache
    <repl>   - block replacement strategy, 'l'-LRU, 'f'-FIFO, 'r'-random

    Examples:   -cache:dl1 dl1:4096:32:1:l
                -dtlb dtlb:128:4096:32:r

  Cache levels can be unified by pointing a level of the instruction cache
  hierarchy at the data cache hiearchy using the "dl1" and "dl2" cache
  configuration arguments.  Most sensible combinations are supported, e.g.,

    A unified l2 cache (il2 is pointed at dl2):
      -cache:il1 il1:128:64:1:l -cache:il2 dl2
      -cache:dl1 dl1:256:32:1:l -cache:dl2 ul2:1024:64:2:l

    Or, a fully unified cache hierarchy (il1 pointed at dl1):
      -cache:il1 dl1
      -cache:dl1 ul1:256:32:1:l -cache:dl2 ul2:1024:64:2:l



sim: ** starting performance simulation **

sim: ** simulation statistics **
sim_num_insn              842550792 # total number of instructions committed
sim_num_refs              255032800 # total number of loads and stores committed
sim_num_loads             171016145 # total number of loads committed
sim_num_stores         84016655.0000 # total number of stores committed
sim_num_branches          120522975 # total number of branches committed
sim_elapsed_time               1206 # total simulation time in seconds
sim_inst_rate           698632.4975 # simulation speed (in insts/sec)
sim_total_insn            857043250 # total number of instructions executed
sim_total_refs            262720921 # total number of loads and stores executed
sim_total_loads           178632514 # total number of loads executed
sim_total_stores       84088407.0000 # total number of stores executed
sim_total_branches        121669160 # total number of branches executed
sim_cycle                 553054399 # total simulation time in cycles
sim_IPC                      1.5235 # instructions per cycle
sim_CPI                      0.6564 # cycles per instruction
sim_exec_BW                  1.5497 # total instructions (mis-spec + committed) per cycle
sim_IPB                      6.9908 # instruction per branch
IFQ_count                1617354142 # cumulative IFQ occupancy
IFQ_fcount                348449103 # cumulative IFQ full count
ifq_occupancy                2.9244 # avg IFQ occupancy (insn's)
ifq_rate                     1.5497 # avg IFQ dispatch rate (insn/cycle)
ifq_latency                  1.8871 # avg IFQ occupant latency (cycle's)
ifq_full                     0.6300 # fraction of time (cycle's) IFQ was full
RUU_count                6743536798 # cumulative RUU occupancy
RUU_fcount                234942338 # cumulative RUU full count
ruu_occupancy               12.1933 # avg RUU occupancy (insn's)
ruu_rate                     1.5497 # avg RUU dispatch rate (insn/cycle)
ruu_latency                  7.8684 # avg RUU occupant latency (cycle's)
ruu_full                     0.4248 # fraction of time (cycle's) RUU was full
LSQ_count                2255087523 # cumulative LSQ occupancy
LSQ_fcount                134585999 # cumulative LSQ full count
lsq_occupancy                4.0775 # avg LSQ occupancy (insn's)
lsq_rate                     1.5497 # avg LSQ dispatch rate (insn/cycle)
lsq_latency                  2.6312 # avg LSQ occupant latency (cycle's)
lsq_full                     0.2434 # fraction of time (cycle's) LSQ was full
sim_slip                 9994668117 # total number of slip cycles
avg_sim_slip                11.8624 # the average slip between issue and retirement
bpred_2lev.lookups        122181432 # total number of bpred lookups
bpred_2lev.updates        120522975 # total number of updates
bpred_2lev.addr_hits      118682082 # total number of address-predicted hits
bpred_2lev.dir_hits       118688702 # total number of direction-predicted hits (includes addr-hits)
bpred_2lev.misses           1834273 # total number of misses
bpred_2lev.jr_hits         28423190 # total number of address-predicted hits for JR's
bpred_2lev.jr_seen         28430346 # total number of JR's seen
bpred_2lev.jr_non_ras_hits.PP           39 # total number of address-predicted hits for non-RAS JR's
bpred_2lev.jr_non_ras_seen.PP         1276 # total number of non-RAS JR's seen
bpred_2lev.bpred_addr_rate    0.9847 # branch address-prediction rate (i.e., addr-hits/updates)
bpred_2lev.bpred_dir_rate    0.9848 # branch direction-prediction rate (i.e., all-hits/updates)
bpred_2lev.bpred_jr_rate    0.9997 # JR address-prediction rate (i.e., JR addr-hits/JRs seen)
bpred_2lev.bpred_jr_non_ras_rate.PP    0.0306 # non-RAS JR addr-pred rate (ie, non-RAS JR hits/JRs seen)
bpred_2lev.retstack_pushes     28870257 # total number of address pushed onto ret-addr stack
bpred_2lev.retstack_pops     28558001 # total number of address popped off of ret-addr stack
bpred_2lev.used_ras.PP     28429070 # total number of RAS predictions used
bpred_2lev.ras_hits.PP     28423151 # total number of RAS hits
bpred_2lev.ras_rate.PP    0.9998 # RAS prediction rate (i.e., RAS hits/used RAS)
il1.accesses              881038562 # total number of accesses
il1.hits                  862779676 # total number of hits
il1.misses                 18258886 # total number of misses
il1.replacements           18258374 # total number of replacements
il1.writebacks                    0 # total number of writebacks
il1.invalidations                 0 # total number of invalidations
il1.miss_rate                0.0207 # miss rate (i.e., misses/ref)
il1.repl_rate                0.0207 # replacement rate (i.e., repls/ref)
il1.wb_rate                  0.0000 # writeback rate (i.e., wrbks/ref)
il1.inv_rate                 0.0000 # invalidation rate (i.e., invs/ref)
dl1.accesses              260803757 # total number of accesses
dl1.hits                  260275818 # total number of hits
dl1.misses                   527939 # total number of misses
dl1.replacements             527427 # total number of replacements
dl1.writebacks               327446 # total number of writebacks
dl1.invalidations                 0 # total number of invalidations
dl1.miss_rate                0.0020 # miss rate (i.e., misses/ref)
dl1.repl_rate                0.0020 # replacement rate (i.e., repls/ref)
dl1.wb_rate                  0.0013 # writeback rate (i.e., wrbks/ref)
dl1.inv_rate                 0.0000 # invalidation rate (i.e., invs/ref)
ul2.accesses               19114271 # total number of accesses
ul2.hits                   19052032 # total number of hits
ul2.misses                    62239 # total number of misses
ul2.replacements              58143 # total number of replacements
ul2.writebacks                57093 # total number of writebacks
ul2.invalidations                 0 # total number of invalidations
ul2.miss_rate                0.0033 # miss rate (i.e., misses/ref)
ul2.repl_rate                0.0030 # replacement rate (i.e., repls/ref)
ul2.wb_rate                  0.0030 # writeback rate (i.e., wrbks/ref)
ul2.inv_rate                 0.0000 # invalidation rate (i.e., invs/ref)
itlb.accesses             881038562 # total number of accesses
itlb.hits                 881038531 # total number of hits
itlb.misses                      31 # total number of misses
itlb.replacements                 0 # total number of replacements
itlb.writebacks                   0 # total number of writebacks
itlb.invalidations                0 # total number of invalidations
itlb.miss_rate               0.0000 # miss rate (i.e., misses/ref)
itlb.repl_rate               0.0000 # replacement rate (i.e., repls/ref)
itlb.wb_rate                 0.0000 # writeback rate (i.e., wrbks/ref)
itlb.inv_rate                0.0000 # invalidation rate (i.e., invs/ref)
dtlb.accesses             260815577 # total number of accesses
dtlb.hits                 260814196 # total number of hits
dtlb.misses                    1381 # total number of misses
dtlb.replacements              1253 # total number of replacements
dtlb.writebacks                   0 # total number of writebacks
dtlb.invalidations                0 # total number of invalidations
dtlb.miss_rate               0.0000 # miss rate (i.e., misses/ref)
dtlb.repl_rate               0.0000 # replacement rate (i.e., repls/ref)
dtlb.wb_rate                 0.0000 # writeback rate (i.e., wrbks/ref)
dtlb.inv_rate                0.0000 # invalidation rate (i.e., invs/ref)
rename_power           231157654.4766 # total power usage of rename unit
bpred_power            2501534956.6978 # total power usage of bpred unit
window_power           1219108569.0955 # total power usage of instruction window
lsq_power              532690932.7454 # total power usage of load/store queue
regfile_power          1975771408.1630 # total power usage of arch. regfile
icache_power           1369883529.8325 # total power usage of icache
dcache_power           3365284154.9038 # total power usage of dcache
dcache2_power          2327858764.1598 # total power usage of dcache2
alu_power              10475500409.1457 # total power usage of alu
falu_power             7898194737.3174 # total power usage of falu
resultbus_power        1270666202.6409 # total power usage of resultbus
clock_power            14433322088.9508 # total power usage of clock
avg_rename_power             0.4180 # avg power usage of rename unit
avg_bpred_power              4.5231 # avg power usage of bpred unit
avg_window_power             2.2043 # avg power usage of instruction window
avg_lsq_power                0.9632 # avg power usage of lsq
avg_regfile_power            3.5725 # avg power usage of arch. regfile
avg_icache_power             2.4769 # avg power usage of icache
avg_dcache_power             6.0849 # avg power usage of dcache
avg_dcache2_power            4.2091 # avg power usage of dcache2
avg_alu_power               18.9412 # avg power usage of alu
avg_falu_power              14.2810 # avg power usage of falu
avg_resultbus_power          2.2975 # avg power usage of resultbus
avg_clock_power             26.0975 # avg power usage of clock
fetch_stage_power      3871418486.5303 # total power usage of fetch stage
dispatch_stage_power   231157654.4766 # total power usage of dispatch stage
issue_stage_power      19191109032.6912 # total power usage of issue stage
avg_fetch_power              7.0001 # average power of fetch unit per cycle
avg_dispatch_power           0.4180 # average power of dispatch unit per cycle
avg_issue_power             34.7002 # average power of issue unit per cycle
total_power            39702778670.8119 # total power per cycle
avg_total_power_cycle       71.7882 # average total power per cycle
avg_total_power_cycle_nofp_nod2      53.2981 # average total power per cycle
avg_total_power_insn        46.3253 # average total power per insn
avg_total_power_insn_nofp_nod2      34.3935 # average total power per insn
rename_power_cc1       125596723.6513 # total power usage of rename unit_cc1
bpred_power_cc1        443803445.6169 # total power usage of bpred unit_cc1
window_power_cc1       921428982.8660 # total power usage of instruction window_cc1
lsq_power_cc1          77791537.6307 # total power usage of lsq_cc1
regfile_power_cc1      1025302147.0790 # total power usage of arch. regfile_cc1
icache_power_cc1       783706599.2857 # total power usage of icache_cc1
dcache_power_cc1       994006502.4077 # total power usage of dcache_cc1
dcache2_power_cc1      79065292.4626 # total power usage of dcache2_cc1
alu_power_cc1          3204382686.4648 # total power usage of alu_cc1
resultbus_power_cc1    663506350.8471 # total power usage of resultbus_cc1
clock_power_cc1        5279901723.2545 # total power usage of clock_cc1
avg_rename_power_cc1         0.2271 # avg power usage of rename unit_cc1
avg_bpred_power_cc1          0.8025 # avg power usage of bpred unit_cc1
avg_window_power_cc1         1.6661 # avg power usage of instruction window_cc1
avg_lsq_power_cc1            0.1407 # avg power usage of lsq_cc1
avg_regfile_power_cc1        1.8539 # avg power usage of arch. regfile_cc1
avg_icache_power_cc1         1.4171 # avg power usage of icache_cc1
avg_dcache_power_cc1         1.7973 # avg power usage of dcache_cc1
avg_dcache2_power_cc1        0.1430 # avg power usage of dcache2_cc1
avg_alu_power_cc1            5.7940 # avg power usage of alu_cc1
avg_resultbus_power_cc1       1.1997 # avg power usage of resultbus_cc1
avg_clock_power_cc1          9.5468 # avg power usage of clock_cc1
fetch_stage_power_cc1  1227510044.9025 # total power usage of fetch stage_cc1
dispatch_stage_power_cc1 125596723.6513 # total power usage of dispatch stage_cc1
issue_stage_power_cc1  5940181352.6788 # total power usage of issue stage_cc1
avg_fetch_power_cc1          2.2195 # average power of fetch unit per cycle_cc1
avg_dispatch_power_cc1       0.2271 # average power of dispatch unit per cycle_cc1
avg_issue_power_cc1         10.7407 # average power of issue unit per cycle_cc1
total_power_cycle_cc1  13598491991.5661 # total power per cycle_cc1
avg_total_power_cycle_cc1      24.5880 # average total power per cycle_cc1
avg_total_power_insn_cc1      15.8668 # average total power per insn_cc1
rename_power_cc2       89548245.2759 # total power usage of rename unit_cc2
bpred_power_cc2        272570325.2571 # total power usage of bpred unit_cc2
window_power_cc2       643411417.4023 # total power usage of instruction window_cc2
lsq_power_cc2          61199245.2467 # total power usage of lsq_cc2
regfile_power_cc2      310049994.1633 # total power usage of arch. regfile_cc2
icache_power_cc2       783706599.2857 # total power usage of icache_cc2
dcache_power_cc2       793483207.3024 # total power usage of dcache_cc2
dcache2_power_cc2      40226895.4869 # total power usage of dcache2_cc2
alu_power_cc2          1275789372.2110 # total power usage of alu_cc2
resultbus_power_cc2    383064560.0708 # total power usage of resultbus_cc2
clock_power_cc2        2953294498.2401 # total power usage of clock_cc2
avg_rename_power_cc2         0.1619 # avg power usage of rename unit_cc2
avg_bpred_power_cc2          0.4928 # avg power usage of bpred unit_cc2
avg_window_power_cc2         1.1634 # avg power usage of instruction window_cc2
avg_lsq_power_cc2            0.1107 # avg power usage of instruction lsq_cc2
avg_regfile_power_cc2        0.5606 # avg power usage of arch. regfile_cc2
avg_icache_power_cc2         1.4171 # avg power usage of icache_cc2
avg_dcache_power_cc2         1.4347 # avg power usage of dcache_cc2
avg_dcache2_power_cc2        0.0727 # avg power usage of dcache2_cc2
avg_alu_power_cc2            2.3068 # avg power usage of alu_cc2
avg_resultbus_power_cc2       0.6926 # avg power usage of resultbus_cc2
avg_clock_power_cc2          5.3400 # avg power usage of clock_cc2
fetch_stage_power_cc2  1056276924.5428 # total power usage of fetch stage_cc2
dispatch_stage_power_cc2 89548245.2759 # total power usage of dispatch stage_cc2
issue_stage_power_cc2  3197174697.7201 # total power usage of issue stage_cc2
avg_fetch_power_cc2          1.9099 # average power of fetch unit per cycle_cc2
avg_dispatch_power_cc2       0.1619 # average power of dispatch unit per cycle_cc2
avg_issue_power_cc2          5.7809 # average power of issue unit per cycle_cc2
total_power_cycle_cc2  7606344359.9422 # total power per cycle_cc2
avg_total_power_cycle_cc2      13.7533 # average total power per cycle_cc2
avg_total_power_insn_cc2       8.8751 # average total power per insn_cc2
rename_power_cc3       100104338.3297 # total power usage of rename unit_cc3
bpred_power_cc3        480457515.1641 # total power usage of bpred unit_cc3
window_power_cc3       664046490.9197 # total power usage of instruction window_cc3
lsq_power_cc3          106172791.1606 # total power usage of lsq_cc3
regfile_power_cc3      382768574.7659 # total power usage of arch. regfile_cc3
icache_power_cc3       842324288.9104 # total power usage of icache_cc3
dcache_power_cc3       1031718226.0210 # total power usage of dcache_cc3
dcache2_power_cc3      265106645.2213 # total power usage of dcache2_cc3
alu_power_cc3          2002901141.3328 # total power usage of alu_cc3
resultbus_power_cc3    421059845.0987 # total power usage of resultbus_cc3
clock_power_cc3        3835067068.5386 # total power usage of clock_cc3
avg_rename_power_cc3         0.1810 # avg power usage of rename unit_cc3
avg_bpred_power_cc3          0.8687 # avg power usage of bpred unit_cc3
avg_window_power_cc3         1.2007 # avg power usage of instruction window_cc3
avg_lsq_power_cc3            0.1920 # avg power usage of instruction lsq_cc3
avg_regfile_power_cc3        0.6921 # avg power usage of arch. regfile_cc3
avg_icache_power_cc3         1.5230 # avg power usage of icache_cc3
avg_dcache_power_cc3         1.8655 # avg power usage of dcache_cc3
avg_dcache2_power_cc3        0.4794 # avg power usage of dcache2_cc3
avg_alu_power_cc3            3.6215 # avg power usage of alu_cc3
avg_resultbus_power_cc3       0.7613 # avg power usage of resultbus_cc3
avg_clock_power_cc3          6.9343 # avg power usage of clock_cc3
fetch_stage_power_cc3  1322781804.0745 # total power usage of fetch stage_cc3
dispatch_stage_power_cc3 100104338.3297 # total power usage of dispatch stage_cc3
issue_stage_power_cc3  4491005139.7541 # total power usage of issue stage_cc3
avg_fetch_power_cc3          2.3918 # average power of fetch unit per cycle_cc3
avg_dispatch_power_cc3       0.1810 # average power of dispatch unit per cycle_cc3
avg_issue_power_cc3          8.1204 # average power of issue unit per cycle_cc3
total_power_cycle_cc3  10131726925.4628 # total power per cycle_cc3
avg_total_power_cycle_cc3      18.3196 # average total power per cycle_cc3
avg_total_power_insn_cc3      11.8217 # average total power per insn_cc3
total_rename_access       856991765 # total number accesses of rename unit
total_bpred_access        120522975 # total number accesses of bpred unit
total_window_access      3194179927 # total number accesses of instruction window
total_lsq_access          260835443 # total number accesses of load/store queue
total_regfile_access     1265644640 # total number accesses of arch. regfile
total_icache_access       881102152 # total number accesses of icache
total_dcache_access       260803757 # total number accesses of dcache
total_dcache2_access       19114271 # total number accesses of dcache2
total_alu_access          820082778 # total number accesses of alu
total_resultbus_access    905534955 # total number accesses of resultbus
avg_rename_access            1.5496 # avg number accesses of rename unit
avg_bpred_access             0.2179 # avg number accesses of bpred unit
avg_window_access            5.7755 # avg number accesses of instruction window
avg_lsq_access               0.4716 # avg number accesses of lsq
avg_regfile_access           2.2885 # avg number accesses of arch. regfile
avg_icache_access            1.5932 # avg number accesses of icache
avg_dcache_access            0.4716 # avg number accesses of dcache
avg_dcache2_access           0.0346 # avg number accesses of dcache2
avg_alu_access               1.4828 # avg number accesses of alu
avg_resultbus_access         1.6373 # avg number accesses of resultbus
max_rename_access                 4 # max number accesses of rename unit
max_bpred_access                  4 # max number accesses of bpred unit
max_window_access                17 # max number accesses of instruction window
max_lsq_access                    6 # max number accesses of load/store queue
max_regfile_access               12 # max number accesses of arch. regfile
max_icache_access                 4 # max number accesses of icache
max_dcache_access                 4 # max number accesses of dcache
max_dcache2_access                5 # max number accesses of dcache2
max_alu_access                    4 # max number accesses of alu
max_resultbus_access              9 # max number accesses of resultbus
max_cycle_power_cc1         54.0562 # maximum cycle power usage of cc1
max_cycle_power_cc2         32.3880 # maximum cycle power usage of cc2
max_cycle_power_cc3         35.4705 # maximum cycle power usage of cc3
sim_invalid_addrs                 2 # total non-speculative bogus addresses seen (debug var)
ld_text_base             0x00400000 # program text (code) segment base
ld_text_size                 124464 # program text (code) size in bytes
ld_data_base             0x10000000 # program initialized data segment base
ld_data_size                  13588 # program init'ed `.data' and uninit'ed `.bss' size in bytes
ld_stack_base            0x7fffc000 # program stack segment base (highest address in stack)
ld_stack_size                 16384 # program initial stack size
ld_prog_entry            0x00400140 # program entry point (initial PC)
ld_environ_base          0x7fff8000 # program environment base address address
ld_target_big_endian              0 # target executable endian-ness, non-zero if big endian
mem.page_count                  962 # total number of pages allocated
mem.page_mem                  3848k # total size of memory pages allocated
mem.ptab_misses                1311 # total first level page table misses
mem.ptab_accesses        5586841591 # total page table accesses
mem.ptab_miss_rate           0.0000 # first level page table miss rate

