sim-outorder: SimpleScalar/PISA Tool Set version 3.0 of August, 2003.
Copyright (c) 1994-2003 by Todd M. Austin, Ph.D. and SimpleScalar, LLC.
All Rights Reserved. This version of SimpleScalar is licensed for academic
non-commercial use.  No portion of this work may be used by any commercial
entity, or for any commercial purpose, without the prior written permission
of SimpleScalar, LLC (info@simplescalar.com).


Processor Parameters:
Issue Width: 4
Window Size: 16
Number of Virtual Registers: 32
Number of Physical Registers: 16
Datapath Width: 64
Total Power Consumption: 69.9873
Branch Predictor Power Consumption: 0.799591  (1.18%)
 branch target buffer power (W): 0.44483
 local predict power (W): 0.0879711
 global predict power (W): 0.0996078
 chooser power (W): 0.0702439
 RAS power (W): 0.0969383
Rename Logic Power Consumption: 0.417965  (0.615%)
 Instruction Decode Power (W): 0.0159915
 RAT decode_power (W): 0.113514
 RAT wordline_power (W): 0.0307815
 RAT bitline_power (W): 0.246771
 DCL Comparators (W): 0.0109075
Instruction Window Power Consumption: 2.20432  (3.24%)
 tagdrive (W): 0.0943488
 tagmatch (W): 0.033695
 Selection Logic (W): 0.0134217
 decode_power (W): 0.0532503
 wordline_power (W): 0.0844643
 bitline_power (W): 1.92514
Load/Store Queue Power Consumption: 0.96318  (1.42%)
 tagdrive (W): 0.457232
 tagmatch (W): 0.100774
 decode_power (W): 0.00799577
 wordline_power (W): 0.0150119
 bitline_power (W): 0.382166
Arch. Register File Power Consumption: 3.57247  (5.25%)
 decode_power (W): 0.113514
 wordline_power (W): 0.0844643
 bitline_power (W): 3.37449
Result Bus Power Consumption: 2.29754  (3.38%)
Total Clock Power: 26.0201  (38.3%)
Int ALU Power: 4.66013  (6.85%)
FP ALU Power: 14.281  (21%)
Instruction Cache Power Consumption: 2.21363  (3.26%)
 decode_power (W): 0.779481
 wordline_power (W): 0.028656
 bitline_power (W): 0.886372
 senseamp_power (W): 0.096
 tagarray_power (W): 0.423116
Itlb_power (W): 0.263317 (0.387%)
Data Cache Power Consumption: 5.18303  (7.62%)
 decode_power (W): 0.651055
 wordline_power (W): 0.196735
 bitline_power (W): 2.71235
 senseamp_power (W): 0.768
 tagarray_power (W): 0.854886
Dtlb_power (W): 0.901877 (1.33%)
Level 2 Cache Power Consumption: 4.2091 (6.19%)
 decode_power (W): 0.41817
 wordline_power (W): 0.0430878
 bitline_power (W): 3.0244
 senseamp_power (W): 0.192
 tagarray_power (W): 0.531433
sim: command line: sim-outorder -redir:sim /home/ubuntu/ece568-single-core-dse/results/bp-btb-128-1.out -config /home/ubuntu/ece568-single-core-dse/configs/step1-bpred/bp-btb-128-1.cfg eeg 

sim: simulation started @ Sun Mar  6 16:02:06 2016, options follow:

sim-outorder: This simulator implements a very detailed out-of-order issue
superscalar processor with a two-level memory system and speculative
execution support.  This simulator is a performance simulator, tracking the
latency of all pipeline operations.

# -config                     # load configuration from a file
# -dumpconfig                 # dump configuration to a file
# -h                    false # print help message    
# -v                    false # verbose operation     
# -d                    false # enable debug message  
# -i                    false # start in Dlite debugger
-seed                       1 # random number generator seed (0 for timer seed)
# -q                    false # initialize and terminate immediately
# -chkpt               <null> # restore EIO trace execution from <fname>
# -redir:sim     /home/ubuntu/ece568-single-core-dse/results/bp-btb-128-1.out # redirect simulator output to file (non-interactive only)
# -redir:prog          <null> # redirect simulated program output to file
-nice                       0 # simulator scheduling priority
-max:inst                   0 # maximum number of inst's to execute
-fastfwd                    0 # number of insts skipped before timing starts
# -ptrace              <null> # generate pipetrace, i.e., <fname|stdout|stderr> <range>
-fetch:ifqsize              4 # instruction fetch queue size (in insts)
-fetch:mplat                3 # extra branch mis-prediction latency
-fetch:speed                1 # speed of front-end of machine relative to execution core
-bpred                  bimod # branch predictor type {nottaken|taken|perfect|bimod|2lev|comb}
-bpred:bimod     2048 # bimodal predictor config (<table size>)
-bpred:2lev      1 1024 8 0 # 2-level predictor config (<l1size> <l2size> <hist_size> <xor>)
-bpred:comb      1024 # combining predictor config (<meta_table_size>)
-bpred:ras                  8 # return address stack size (0 for no return stack)
-bpred:btb       128 1 # BTB config (<num_sets> <associativity>)
# -bpred:spec_update       <null> # speculative predictors update in {ID|WB} (default non-spec)
-decode:width               4 # instruction decode B/W (insts/cycle)
-issue:width                4 # instruction issue B/W (insts/cycle)
-issue:inorder          false # run pipeline with in-order issue
-issue:wrongpath         true # issue instructions down wrong execution paths
-commit:width               4 # instruction commit B/W (insts/cycle)
-ruu:size                  16 # register update unit (RUU) size
-lsq:size                   8 # load/store queue (LSQ) size
-cache:dl1       dl1:128:32:4:l # l1 data cache config, i.e., {<config>|none}
-cache:dl1lat               1 # l1 data cache hit latency (in cycles)
-cache:dl2       ul2:1024:64:4:l # l2 data cache config, i.e., {<config>|none}
-cache:dl2lat               6 # l2 data cache hit latency (in cycles)
-cache:il1       il1:512:32:1:l # l1 inst cache config, i.e., {<config>|dl1|dl2|none}
-cache:il1lat               1 # l1 instruction cache hit latency (in cycles)
-cache:il2                dl2 # l2 instruction cache config, i.e., {<config>|dl2|none}
-cache:il2lat               6 # l2 instruction cache hit latency (in cycles)
-cache:flush            false # flush caches on system calls
-cache:icompress        false # convert 64-bit inst addresses to 32-bit inst equivalents
-mem:lat         18 2 # memory access latency (<first_chunk> <inter_chunk>)
-mem:width                  8 # memory access bus width (in bytes)
-tlb:itlb        itlb:16:4096:4:l # instruction TLB config, i.e., {<config>|none}
-tlb:dtlb        dtlb:32:4096:4:l # data TLB config, i.e., {<config>|none}
-tlb:lat                   30 # inst/data TLB miss latency (in cycles)
-res:ialu                   4 # total number of integer ALU's available
-res:imult                  1 # total number of integer multiplier/dividers available
-res:memport                2 # total number of memory system ports available (to CPU)
-res:fpalu                  4 # total number of floating point ALU's available
-res:fpmult                 1 # total number of floating point multiplier/dividers available
# -pcstat              <null> # profile stat(s) against text addr's (mult uses ok)
-bugcompat              false # operate in backward-compatible bugs mode (for testing only)

  Pipetrace range arguments are formatted as follows:

    {{@|#}<start>}:{{@|#|+}<end>}

  Both ends of the range are optional, if neither are specified, the entire
  execution is traced.  Ranges that start with a `@' designate an address
  range to be traced, those that start with an `#' designate a cycle count
  range.  All other range values represent an instruction count range.  The
  second argument, if specified with a `+', indicates a value relative
  to the first argument, e.g., 1000:+100 == 1000:1100.  Program symbols may
  be used in all contexts.

    Examples:   -ptrace FOO.trc #0:#1000
                -ptrace BAR.trc @2000:
                -ptrace BLAH.trc :1500
                -ptrace UXXE.trc :
                -ptrace FOOBAR.trc @main:+278

  Branch predictor configuration examples for 2-level predictor:
    Configurations:   N, M, W, X
      N   # entries in first level (# of shift register(s))
      W   width of shift register(s)
      M   # entries in 2nd level (# of counters, or other FSM)
      X   (yes-1/no-0) xor history and address for 2nd level index
    Sample predictors:
      GAg     : 1, W, 2^W, 0
      GAp     : 1, W, M (M > 2^W), 0
      PAg     : N, W, 2^W, 0
      PAp     : N, W, M (M == 2^(N+W)), 0
      gshare  : 1, W, 2^W, 1
  Predictor `comb' combines a bimodal and a 2-level predictor.

  The cache config parameter <config> has the following format:

    <name>:<nsets>:<bsize>:<assoc>:<repl>

    <name>   - name of the cache being defined
    <nsets>  - number of sets in the cache
    <bsize>  - block size of the cache
    <assoc>  - associativity of the cache
    <repl>   - block replacement strategy, 'l'-LRU, 'f'-FIFO, 'r'-random

    Examples:   -cache:dl1 dl1:4096:32:1:l
                -dtlb dtlb:128:4096:32:r

  Cache levels can be unified by pointing a level of the instruction cache
  hierarchy at the data cache hiearchy using the "dl1" and "dl2" cache
  configuration arguments.  Most sensible combinations are supported, e.g.,

    A unified l2 cache (il2 is pointed at dl2):
      -cache:il1 il1:128:64:1:l -cache:il2 dl2
      -cache:dl1 dl1:256:32:1:l -cache:dl2 ul2:1024:64:2:l

    Or, a fully unified cache hierarchy (il1 pointed at dl1):
      -cache:il1 dl1
      -cache:dl1 ul1:256:32:1:l -cache:dl2 ul2:1024:64:2:l



sim: ** starting performance simulation **

sim: ** simulation statistics **
sim_num_insn              842550792 # total number of instructions committed
sim_num_refs              255032800 # total number of loads and stores committed
sim_num_loads             171016145 # total number of loads committed
sim_num_stores         84016655.0000 # total number of stores committed
sim_num_branches          120522975 # total number of branches committed
sim_elapsed_time                781 # total simulation time in seconds
sim_inst_rate          1078810.2330 # simulation speed (in insts/sec)
sim_total_insn            857279465 # total number of instructions executed
sim_total_refs            262253938 # total number of loads and stores executed
sim_total_loads           178133792 # total number of loads executed
sim_total_stores       84120146.0000 # total number of stores executed
sim_total_branches        121599251 # total number of branches executed
sim_cycle                 568879927 # total simulation time in cycles
sim_IPC                      1.4811 # instructions per cycle
sim_CPI                      0.6752 # cycles per instruction
sim_exec_BW                  1.5070 # total instructions (mis-spec + committed) per cycle
sim_IPB                      6.9908 # instruction per branch
IFQ_count                1571487993 # cumulative IFQ occupancy
IFQ_fcount                336063402 # cumulative IFQ full count
ifq_occupancy                2.7624 # avg IFQ occupancy (insn's)
ifq_rate                     1.5070 # avg IFQ dispatch rate (insn/cycle)
ifq_latency                  1.8331 # avg IFQ occupant latency (cycle's)
ifq_full                     0.5907 # fraction of time (cycle's) IFQ was full
RUU_count                6623004942 # cumulative RUU occupancy
RUU_fcount                210062542 # cumulative RUU full count
ruu_occupancy               11.6422 # avg RUU occupancy (insn's)
ruu_rate                     1.5070 # avg RUU dispatch rate (insn/cycle)
ruu_latency                  7.7256 # avg RUU occupant latency (cycle's)
ruu_full                     0.3693 # fraction of time (cycle's) RUU was full
LSQ_count                2205251564 # cumulative LSQ occupancy
LSQ_fcount                126576459 # cumulative LSQ full count
lsq_occupancy                3.8765 # avg LSQ occupancy (insn's)
lsq_rate                     1.5070 # avg LSQ dispatch rate (insn/cycle)
lsq_latency                  2.5724 # avg LSQ occupant latency (cycle's)
lsq_full                     0.2225 # fraction of time (cycle's) LSQ was full
sim_slip                 9827649697 # total number of slip cycles
avg_sim_slip                11.6642 # the average slip between issue and retirement
bpred_bimod.lookups       122054666 # total number of bpred lookups
bpred_bimod.updates       120522975 # total number of updates
bpred_bimod.addr_hits     109601427 # total number of address-predicted hits
bpred_bimod.dir_hits      118682809 # total number of direction-predicted hits (includes addr-hits)
bpred_bimod.misses          1840166 # total number of misses
bpred_bimod.jr_hits        28422317 # total number of address-predicted hits for JR's
bpred_bimod.jr_seen        28430346 # total number of JR's seen
bpred_bimod.jr_non_ras_hits.PP           24 # total number of address-predicted hits for non-RAS JR's
bpred_bimod.jr_non_ras_seen.PP         1276 # total number of non-RAS JR's seen
bpred_bimod.bpred_addr_rate    0.9094 # branch address-prediction rate (i.e., addr-hits/updates)
bpred_bimod.bpred_dir_rate    0.9847 # branch direction-prediction rate (i.e., all-hits/updates)
bpred_bimod.bpred_jr_rate    0.9997 # JR address-prediction rate (i.e., JR addr-hits/JRs seen)
bpred_bimod.bpred_jr_non_ras_rate.PP    0.0188 # non-RAS JR addr-pred rate (ie, non-RAS JR hits/JRs seen)
bpred_bimod.retstack_pushes     28851368 # total number of address pushed onto ret-addr stack
bpred_bimod.retstack_pops     28612749 # total number of address popped off of ret-addr stack
bpred_bimod.used_ras.PP     28429070 # total number of RAS predictions used
bpred_bimod.ras_hits.PP     28422293 # total number of RAS hits
bpred_bimod.ras_rate.PP    0.9998 # RAS prediction rate (i.e., RAS hits/used RAS)
il1.accesses              880321633 # total number of accesses
il1.hits                  862076206 # total number of hits
il1.misses                 18245427 # total number of misses
il1.replacements           18244915 # total number of replacements
il1.writebacks                    0 # total number of writebacks
il1.invalidations                 0 # total number of invalidations
il1.miss_rate                0.0207 # miss rate (i.e., misses/ref)
il1.repl_rate                0.0207 # replacement rate (i.e., repls/ref)
il1.wb_rate                  0.0000 # writeback rate (i.e., wrbks/ref)
il1.inv_rate                 0.0000 # invalidation rate (i.e., invs/ref)
dl1.accesses              260693055 # total number of accesses
dl1.hits                  260165156 # total number of hits
dl1.misses                   527899 # total number of misses
dl1.replacements             527387 # total number of replacements
dl1.writebacks               327435 # total number of writebacks
dl1.invalidations                 0 # total number of invalidations
dl1.miss_rate                0.0020 # miss rate (i.e., misses/ref)
dl1.repl_rate                0.0020 # replacement rate (i.e., repls/ref)
dl1.wb_rate                  0.0013 # writeback rate (i.e., wrbks/ref)
dl1.inv_rate                 0.0000 # invalidation rate (i.e., invs/ref)
ul2.accesses               19100761 # total number of accesses
ul2.hits                   19038566 # total number of hits
ul2.misses                    62195 # total number of misses
ul2.replacements              58099 # total number of replacements
ul2.writebacks                57071 # total number of writebacks
ul2.invalidations                 0 # total number of invalidations
ul2.miss_rate                0.0033 # miss rate (i.e., misses/ref)
ul2.repl_rate                0.0030 # replacement rate (i.e., repls/ref)
ul2.wb_rate                  0.0030 # writeback rate (i.e., wrbks/ref)
ul2.inv_rate                 0.0000 # invalidation rate (i.e., invs/ref)
itlb.accesses             880321633 # total number of accesses
itlb.hits                 880321602 # total number of hits
itlb.misses                      31 # total number of misses
itlb.replacements                 0 # total number of replacements
itlb.writebacks                   0 # total number of writebacks
itlb.invalidations                0 # total number of invalidations
itlb.miss_rate               0.0000 # miss rate (i.e., misses/ref)
itlb.repl_rate               0.0000 # replacement rate (i.e., repls/ref)
itlb.wb_rate                 0.0000 # writeback rate (i.e., wrbks/ref)
itlb.inv_rate                0.0000 # invalidation rate (i.e., invs/ref)
dtlb.accesses             260704868 # total number of accesses
dtlb.hits                 260703487 # total number of hits
dtlb.misses                    1381 # total number of misses
dtlb.replacements              1253 # total number of replacements
dtlb.writebacks                   0 # total number of writebacks
dtlb.invalidations                0 # total number of invalidations
dtlb.miss_rate               0.0000 # miss rate (i.e., misses/ref)
dtlb.repl_rate               0.0000 # replacement rate (i.e., repls/ref)
dtlb.wb_rate                 0.0000 # writeback rate (i.e., wrbks/ref)
dtlb.inv_rate                0.0000 # invalidation rate (i.e., invs/ref)
rename_power           237772179.2243 # total power usage of rename unit
bpred_power            454871383.6984 # total power usage of bpred unit
window_power           1253993088.7010 # total power usage of instruction window
lsq_power              547933764.2077 # total power usage of load/store queue
regfile_power          2032307665.3394 # total power usage of arch. regfile
icache_power           1409082442.0220 # total power usage of icache
dcache_power           3461581006.7862 # total power usage of dcache
dcache2_power          2394469922.5024 # total power usage of dcache2
alu_power              10775254511.7538 # total power usage of alu
falu_power             8124199814.2015 # total power usage of falu
resultbus_power        1307026030.7187 # total power usage of resultbus
clock_power            14802292852.5019 # total power usage of clock
avg_rename_power             0.4180 # avg power usage of rename unit
avg_bpred_power              0.7996 # avg power usage of bpred unit
avg_window_power             2.2043 # avg power usage of instruction window
avg_lsq_power                0.9632 # avg power usage of lsq
avg_regfile_power            3.5725 # avg power usage of arch. regfile
avg_icache_power             2.4769 # avg power usage of icache
avg_dcache_power             6.0849 # avg power usage of dcache
avg_dcache2_power            4.2091 # avg power usage of dcache2
avg_alu_power               18.9412 # avg power usage of alu
avg_falu_power              14.2810 # avg power usage of falu
avg_resultbus_power          2.2975 # avg power usage of resultbus
avg_clock_power             26.0201 # avg power usage of clock
fetch_stage_power      1863953825.7203 # total power usage of fetch stage
dispatch_stage_power   237772179.2243 # total power usage of dispatch stage
issue_stage_power      19740258324.6699 # total power usage of issue stage
avg_fetch_power              3.2765 # average power of fetch unit per cycle
avg_dispatch_power           0.4180 # average power of dispatch unit per cycle
avg_issue_power             34.7002 # average power of issue unit per cycle
total_power            38676584847.4558 # total power per cycle
avg_total_power_cycle       67.9873 # average total power per cycle
avg_total_power_cycle_nofp_nod2      49.4971 # average total power per cycle
avg_total_power_insn        45.1155 # average total power per insn
avg_total_power_insn_nofp_nod2      32.8457 # average total power per insn
rename_power_cc1       124231655.4773 # total power usage of rename unit_cc1
bpred_power_cc1        78481401.9324 # total power usage of bpred unit_cc1
window_power_cc1       937802068.8088 # total power usage of instruction window_cc1
lsq_power_cc1          78474927.9315 # total power usage of lsq_cc1
regfile_power_cc1      1055252155.8289 # total power usage of arch. regfile_cc1
icache_power_cc1       774898872.0011 # total power usage of icache_cc1
dcache_power_cc1       993291017.8361 # total power usage of dcache_cc1
dcache2_power_cc1      79014513.9351 # total power usage of dcache2_cc1
alu_power_cc1          3234636840.7367 # total power usage of alu_cc1
resultbus_power_cc1    656609708.9947 # total power usage of resultbus_cc1
clock_power_cc1        5566157488.6839 # total power usage of clock_cc1
avg_rename_power_cc1         0.2184 # avg power usage of rename unit_cc1
avg_bpred_power_cc1          0.1380 # avg power usage of bpred unit_cc1
avg_window_power_cc1         1.6485 # avg power usage of instruction window_cc1
avg_lsq_power_cc1            0.1379 # avg power usage of lsq_cc1
avg_regfile_power_cc1        1.8550 # avg power usage of arch. regfile_cc1
avg_icache_power_cc1         1.3621 # avg power usage of icache_cc1
avg_dcache_power_cc1         1.7460 # avg power usage of dcache_cc1
avg_dcache2_power_cc1        0.1389 # avg power usage of dcache2_cc1
avg_alu_power_cc1            5.6860 # avg power usage of alu_cc1
avg_resultbus_power_cc1       1.1542 # avg power usage of resultbus_cc1
avg_clock_power_cc1          9.7844 # avg power usage of clock_cc1
fetch_stage_power_cc1  853380273.9334 # total power usage of fetch stage_cc1
dispatch_stage_power_cc1 124231655.4773 # total power usage of dispatch stage_cc1
issue_stage_power_cc1  5979829078.2430 # total power usage of issue stage_cc1
avg_fetch_power_cc1          1.5001 # average power of fetch unit per cycle_cc1
avg_dispatch_power_cc1       0.2184 # average power of dispatch unit per cycle_cc1
avg_issue_power_cc1         10.5116 # average power of issue unit per cycle_cc1
total_power_cycle_cc1  13578850652.1665 # total power per cycle_cc1
avg_total_power_cycle_cc1      23.8694 # average total power per cycle_cc1
avg_total_power_insn_cc1      15.8395 # average total power per insn_cc1
rename_power_cc2       89571395.6469 # total power usage of rename unit_cc2
bpred_power_cc2        48184555.6427 # total power usage of bpred unit_cc2
window_power_cc2       640774634.5056 # total power usage of instruction window_cc2
lsq_power_cc2          61167284.1031 # total power usage of lsq_cc2
regfile_power_cc2      307581728.9307 # total power usage of arch. regfile_cc2
icache_power_cc2       774898872.0011 # total power usage of icache_cc2
dcache_power_cc2       793146401.6549 # total power usage of dcache_cc2
dcache2_power_cc2      40198463.0471 # total power usage of dcache2_cc2
alu_power_cc2          1275565427.8510 # total power usage of alu_cc2
resultbus_power_cc2    373776473.3686 # total power usage of resultbus_cc2
clock_power_cc2        3064887273.2558 # total power usage of clock_cc2
avg_rename_power_cc2         0.1575 # avg power usage of rename unit_cc2
avg_bpred_power_cc2          0.0847 # avg power usage of bpred unit_cc2
avg_window_power_cc2         1.1264 # avg power usage of instruction window_cc2
avg_lsq_power_cc2            0.1075 # avg power usage of instruction lsq_cc2
avg_regfile_power_cc2        0.5407 # avg power usage of arch. regfile_cc2
avg_icache_power_cc2         1.3621 # avg power usage of icache_cc2
avg_dcache_power_cc2         1.3942 # avg power usage of dcache_cc2
avg_dcache2_power_cc2        0.0707 # avg power usage of dcache2_cc2
avg_alu_power_cc2            2.2422 # avg power usage of alu_cc2
avg_resultbus_power_cc2       0.6570 # avg power usage of resultbus_cc2
avg_clock_power_cc2          5.3876 # avg power usage of clock_cc2
fetch_stage_power_cc2  823083427.6438 # total power usage of fetch stage_cc2
dispatch_stage_power_cc2 89571395.6469 # total power usage of dispatch stage_cc2
issue_stage_power_cc2  3184628684.5304 # total power usage of issue stage_cc2
avg_fetch_power_cc2          1.4468 # average power of fetch unit per cycle_cc2
avg_dispatch_power_cc2       0.1575 # average power of dispatch unit per cycle_cc2
avg_issue_power_cc2          5.5981 # average power of issue unit per cycle_cc2
total_power_cycle_cc2  7469752510.0075 # total power per cycle_cc2
avg_total_power_cycle_cc2      13.1306 # average total power per cycle_cc2
avg_total_power_insn_cc2       8.7133 # average total power per insn_cc2
rename_power_cc3       100925447.9945 # total power usage of rename unit_cc3
bpred_power_cc3        86094317.3953 # total power usage of bpred unit_cc3
window_power_cc3       661915255.5087 # total power usage of instruction window_cc3
lsq_power_cc3          107606398.9576 # total power usage of lsq_cc3
regfile_power_cc3      380711172.3655 # total power usage of arch. regfile_cc3
icache_power_cc3       838317225.2541 # total power usage of icache_cc3
dcache_power_cc3       1041069533.9541 # total power usage of dcache_cc3
dcache2_power_cc3      271744183.6911 # total power usage of dcache2_cc3
alu_power_cc3          2029627191.4650 # total power usage of alu_cc3
resultbus_power_cc3    414263843.8242 # total power usage of resultbus_cc3
clock_power_cc3        3946802823.4208 # total power usage of clock_cc3
avg_rename_power_cc3         0.1774 # avg power usage of rename unit_cc3
avg_bpred_power_cc3          0.1513 # avg power usage of bpred unit_cc3
avg_window_power_cc3         1.1635 # avg power usage of instruction window_cc3
avg_lsq_power_cc3            0.1892 # avg power usage of instruction lsq_cc3
avg_regfile_power_cc3        0.6692 # avg power usage of arch. regfile_cc3
avg_icache_power_cc3         1.4736 # avg power usage of icache_cc3
avg_dcache_power_cc3         1.8300 # avg power usage of dcache_cc3
avg_dcache2_power_cc3        0.4777 # avg power usage of dcache2_cc3
avg_alu_power_cc3            3.5678 # avg power usage of alu_cc3
avg_resultbus_power_cc3       0.7282 # avg power usage of resultbus_cc3
avg_clock_power_cc3          6.9378 # avg power usage of clock_cc3
fetch_stage_power_cc3  924411542.6494 # total power usage of fetch stage_cc3
dispatch_stage_power_cc3 100925447.9945 # total power usage of dispatch stage_cc3
issue_stage_power_cc3  4526226407.4007 # total power usage of issue stage_cc3
avg_fetch_power_cc3          1.6250 # average power of fetch unit per cycle_cc3
avg_dispatch_power_cc3       0.1774 # average power of dispatch unit per cycle_cc3
avg_issue_power_cc3          7.9564 # average power of issue unit per cycle_cc3
total_power_cycle_cc3  9879077393.8309 # total power per cycle_cc3
avg_total_power_cycle_cc3      17.3658 # average total power per cycle_cc3
avg_total_power_insn_cc3      11.5238 # average total power per insn_cc3
total_rename_access       857213318 # total number accesses of rename unit
total_bpred_access        120522975 # total number accesses of bpred unit
total_window_access      3194872689 # total number accesses of instruction window
total_lsq_access          260717816 # total number accesses of load/store queue
total_regfile_access     1267289904 # total number accesses of arch. regfile
total_icache_access       882633035 # total number accesses of icache
total_dcache_access       260693055 # total number accesses of dcache
total_dcache2_access       19100761 # total number accesses of dcache2
total_alu_access          819889454 # total number accesses of alu
total_resultbus_access    905148153 # total number accesses of resultbus
avg_rename_access            1.5068 # avg number accesses of rename unit
avg_bpred_access             0.2119 # avg number accesses of bpred unit
avg_window_access            5.6161 # avg number accesses of instruction window
avg_lsq_access               0.4583 # avg number accesses of lsq
avg_regfile_access           2.2277 # avg number accesses of arch. regfile
avg_icache_access            1.5515 # avg number accesses of icache
avg_dcache_access            0.4583 # avg number accesses of dcache
avg_dcache2_access           0.0336 # avg number accesses of dcache2
avg_alu_access               1.4412 # avg number accesses of alu
avg_resultbus_access         1.5911 # avg number accesses of resultbus
max_rename_access                 4 # max number accesses of rename unit
max_bpred_access                  4 # max number accesses of bpred unit
max_window_access                16 # max number accesses of instruction window
max_lsq_access                    6 # max number accesses of load/store queue
max_regfile_access               11 # max number accesses of arch. regfile
max_icache_access                 4 # max number accesses of icache
max_dcache_access                 4 # max number accesses of dcache
max_dcache2_access                5 # max number accesses of dcache2
max_alu_access                    4 # max number accesses of alu
max_resultbus_access              9 # max number accesses of resultbus
max_cycle_power_cc1         54.1855 # maximum cycle power usage of cc1
max_cycle_power_cc2         31.6361 # maximum cycle power usage of cc2
max_cycle_power_cc3         33.1428 # maximum cycle power usage of cc3
sim_invalid_addrs                 2 # total non-speculative bogus addresses seen (debug var)
ld_text_base             0x00400000 # program text (code) segment base
ld_text_size                 124464 # program text (code) size in bytes
ld_data_base             0x10000000 # program initialized data segment base
ld_data_size                  13588 # program init'ed `.data' and uninit'ed `.bss' size in bytes
ld_stack_base            0x7fffc000 # program stack segment base (highest address in stack)
ld_stack_size                 16384 # program initial stack size
ld_prog_entry            0x00400140 # program entry point (initial PC)
ld_environ_base          0x7fff8000 # program environment base address address
ld_target_big_endian              0 # target executable endian-ness, non-zero if big endian
mem.page_count                  962 # total number of pages allocated
mem.page_mem                  3848k # total size of memory pages allocated
mem.ptab_misses                1272 # total first level page table misses
mem.ptab_accesses        5582961620 # total page table accesses
mem.ptab_miss_rate           0.0000 # first level page table miss rate

