sim-outorder: SimpleScalar/PISA Tool Set version 3.0 of August, 2003.
Copyright (c) 1994-2003 by Todd M. Austin, Ph.D. and SimpleScalar, LLC.
All Rights Reserved. This version of SimpleScalar is licensed for academic
non-commercial use.  No portion of this work may be used by any commercial
entity, or for any commercial purpose, without the prior written permission
of SimpleScalar, LLC (info@simplescalar.com).


Processor Parameters:
Issue Width: 4
Window Size: 16
Number of Virtual Registers: 32
Number of Physical Registers: 16
Datapath Width: 64
Total Power Consumption: 57.6033
Branch Predictor Power Consumption: 1.25755  (2.26%)
 branch target buffer power (W): 0.902794
 local predict power (W): 0.0879711
 global predict power (W): 0.0996078
 chooser power (W): 0.0702439
 RAS power (W): 0.0969383
Rename Logic Power Consumption: 0.417965  (0.752%)
 Instruction Decode Power (W): 0.0159915
 RAT decode_power (W): 0.113514
 RAT wordline_power (W): 0.0307815
 RAT bitline_power (W): 0.246771
 DCL Comparators (W): 0.0109075
Instruction Window Power Consumption: 2.20432  (3.96%)
 tagdrive (W): 0.0943488
 tagmatch (W): 0.033695
 Selection Logic (W): 0.0134217
 decode_power (W): 0.0532503
 wordline_power (W): 0.0844643
 bitline_power (W): 1.92514
Load/Store Queue Power Consumption: 0.96318  (1.73%)
 tagdrive (W): 0.457232
 tagmatch (W): 0.100774
 decode_power (W): 0.00799577
 wordline_power (W): 0.0150119
 bitline_power (W): 0.382166
Arch. Register File Power Consumption: 3.57247  (6.42%)
 decode_power (W): 0.113514
 wordline_power (W): 0.0844643
 bitline_power (W): 3.37449
Result Bus Power Consumption: 2.29754  (4.13%)
Total Clock Power: 21.5075  (38.7%)
Int ALU Power: 4.66013  (8.38%)
FP ALU Power: 7.14052  (12.8%)
Instruction Cache Power Consumption: 2.21363  (3.98%)
 decode_power (W): 0.779481
 wordline_power (W): 0.028656
 bitline_power (W): 0.886372
 senseamp_power (W): 0.096
 tagarray_power (W): 0.423116
Itlb_power (W): 0.263317 (0.474%)
Data Cache Power Consumption: 5.18303  (9.32%)
 decode_power (W): 0.651055
 wordline_power (W): 0.196735
 bitline_power (W): 2.71235
 senseamp_power (W): 0.768
 tagarray_power (W): 0.854886
Dtlb_power (W): 0.901877 (1.62%)
Level 2 Cache Power Consumption: 3.02027 (5.43%)
 decode_power (W): 0.41817
 wordline_power (W): 0.0225599
 bitline_power (W): 1.5122
 senseamp_power (W): 0.096
 tagarray_power (W): 0.971338
sim: command line: sim-outorder -redir:sim /home/ubuntu/ece568-single-core-dse/results/combined-blocksize-32.out -config /home/ubuntu/ece568-single-core-dse/configs/step3/combined-blocksize-32.cfg eeg 

sim: simulation started @ Mon Mar  7 05:30:48 2016, options follow:

sim-outorder: This simulator implements a very detailed out-of-order issue
superscalar processor with a two-level memory system and speculative
execution support.  This simulator is a performance simulator, tracking the
latency of all pipeline operations.

# -config                     # load configuration from a file
# -dumpconfig                 # dump configuration to a file
# -h                    false # print help message    
# -v                    false # verbose operation     
# -d                    false # enable debug message  
# -i                    false # start in Dlite debugger
-seed                       1 # random number generator seed (0 for timer seed)
# -q                    false # initialize and terminate immediately
# -chkpt               <null> # restore EIO trace execution from <fname>
# -redir:sim     /home/ubuntu/ece568-single-core-dse/results/combined-blocksize-32.out # redirect simulator output to file (non-interactive only)
# -redir:prog          <null> # redirect simulated program output to file
-nice                       0 # simulator scheduling priority
-max:inst                   0 # maximum number of inst's to execute
-fastfwd                    0 # number of insts skipped before timing starts
# -ptrace              <null> # generate pipetrace, i.e., <fname|stdout|stderr> <range>
-fetch:ifqsize              4 # instruction fetch queue size (in insts)
-fetch:mplat                3 # extra branch mis-prediction latency
-fetch:speed                1 # speed of front-end of machine relative to execution core
-bpred                  bimod # branch predictor type {nottaken|taken|perfect|bimod|2lev|comb}
-bpred:bimod     2048 # bimodal predictor config (<table size>)
-bpred:2lev      1 1024 8 0 # 2-level predictor config (<l1size> <l2size> <hist_size> <xor>)
-bpred:comb      1024 # combining predictor config (<meta_table_size>)
-bpred:ras                  8 # return address stack size (0 for no return stack)
-bpred:btb       128 2 # BTB config (<num_sets> <associativity>)
# -bpred:spec_update       <null> # speculative predictors update in {ID|WB} (default non-spec)
-decode:width               4 # instruction decode B/W (insts/cycle)
-issue:width                4 # instruction issue B/W (insts/cycle)
-issue:inorder          false # run pipeline with in-order issue
-issue:wrongpath         true # issue instructions down wrong execution paths
-commit:width               4 # instruction commit B/W (insts/cycle)
-ruu:size                  16 # register update unit (RUU) size
-lsq:size                   8 # load/store queue (LSQ) size
-cache:dl1       dl1:128:32:4:l # l1 data cache config, i.e., {<config>|none}
-cache:dl1lat               1 # l1 data cache hit latency (in cycles)
-cache:dl2       ul2:2048:32:4:l # l2 data cache config, i.e., {<config>|none}
-cache:dl2lat               6 # l2 data cache hit latency (in cycles)
-cache:il1       il1:512:32:1:l # l1 inst cache config, i.e., {<config>|dl1|dl2|none}
-cache:il1lat               1 # l1 instruction cache hit latency (in cycles)
-cache:il2                dl2 # l2 instruction cache config, i.e., {<config>|dl2|none}
-cache:il2lat               6 # l2 instruction cache hit latency (in cycles)
-cache:flush            false # flush caches on system calls
-cache:icompress        false # convert 64-bit inst addresses to 32-bit inst equivalents
-mem:lat         18 2 # memory access latency (<first_chunk> <inter_chunk>)
-mem:width                  8 # memory access bus width (in bytes)
-tlb:itlb        itlb:16:4096:4:l # instruction TLB config, i.e., {<config>|none}
-tlb:dtlb        dtlb:32:4096:4:l # data TLB config, i.e., {<config>|none}
-tlb:lat                   30 # inst/data TLB miss latency (in cycles)
-res:ialu                   4 # total number of integer ALU's available
-res:imult                  1 # total number of integer multiplier/dividers available
-res:memport                2 # total number of memory system ports available (to CPU)
-res:fpalu                  2 # total number of floating point ALU's available
-res:fpmult                 2 # total number of floating point multiplier/dividers available
# -pcstat              <null> # profile stat(s) against text addr's (mult uses ok)
-bugcompat              false # operate in backward-compatible bugs mode (for testing only)

  Pipetrace range arguments are formatted as follows:

    {{@|#}<start>}:{{@|#|+}<end>}

  Both ends of the range are optional, if neither are specified, the entire
  execution is traced.  Ranges that start with a `@' designate an address
  range to be traced, those that start with an `#' designate a cycle count
  range.  All other range values represent an instruction count range.  The
  second argument, if specified with a `+', indicates a value relative
  to the first argument, e.g., 1000:+100 == 1000:1100.  Program symbols may
  be used in all contexts.

    Examples:   -ptrace FOO.trc #0:#1000
                -ptrace BAR.trc @2000:
                -ptrace BLAH.trc :1500
                -ptrace UXXE.trc :
                -ptrace FOOBAR.trc @main:+278

  Branch predictor configuration examples for 2-level predictor:
    Configurations:   N, M, W, X
      N   # entries in first level (# of shift register(s))
      W   width of shift register(s)
      M   # entries in 2nd level (# of counters, or other FSM)
      X   (yes-1/no-0) xor history and address for 2nd level index
    Sample predictors:
      GAg     : 1, W, 2^W, 0
      GAp     : 1, W, M (M > 2^W), 0
      PAg     : N, W, 2^W, 0
      PAp     : N, W, M (M == 2^(N+W)), 0
      gshare  : 1, W, 2^W, 1
  Predictor `comb' combines a bimodal and a 2-level predictor.

  The cache config parameter <config> has the following format:

    <name>:<nsets>:<bsize>:<assoc>:<repl>

    <name>   - name of the cache being defined
    <nsets>  - number of sets in the cache
    <bsize>  - block size of the cache
    <assoc>  - associativity of the cache
    <repl>   - block replacement strategy, 'l'-LRU, 'f'-FIFO, 'r'-random

    Examples:   -cache:dl1 dl1:4096:32:1:l
                -dtlb dtlb:128:4096:32:r

  Cache levels can be unified by pointing a level of the instruction cache
  hierarchy at the data cache hiearchy using the "dl1" and "dl2" cache
  configuration arguments.  Most sensible combinations are supported, e.g.,

    A unified l2 cache (il2 is pointed at dl2):
      -cache:il1 il1:128:64:1:l -cache:il2 dl2
      -cache:dl1 dl1:256:32:1:l -cache:dl2 ul2:1024:64:2:l

    Or, a fully unified cache hierarchy (il1 pointed at dl1):
      -cache:il1 dl1
      -cache:dl1 ul1:256:32:1:l -cache:dl2 ul2:1024:64:2:l



sim: ** starting performance simulation **

sim: ** simulation statistics **
sim_num_insn              842550792 # total number of instructions committed
sim_num_refs              255032800 # total number of loads and stores committed
sim_num_loads             171016145 # total number of loads committed
sim_num_stores         84016655.0000 # total number of stores committed
sim_num_branches          120522975 # total number of branches committed
sim_elapsed_time                767 # total simulation time in seconds
sim_inst_rate          1098501.6845 # simulation speed (in insts/sec)
sim_total_insn            859679710 # total number of instructions executed
sim_total_refs            263261248 # total number of loads and stores executed
sim_total_loads           179138433 # total number of loads executed
sim_total_stores       84122815.0000 # total number of stores executed
sim_total_branches        121723555 # total number of branches executed
sim_cycle                 549271459 # total simulation time in cycles
sim_IPC                      1.5339 # instructions per cycle
sim_CPI                      0.6519 # cycles per instruction
sim_exec_BW                  1.5651 # total instructions (mis-spec + committed) per cycle
sim_IPB                      6.9908 # instruction per branch
IFQ_count                1601057899 # cumulative IFQ occupancy
IFQ_fcount                344103941 # cumulative IFQ full count
ifq_occupancy                2.9149 # avg IFQ occupancy (insn's)
ifq_rate                     1.5651 # avg IFQ dispatch rate (insn/cycle)
ifq_latency                  1.8624 # avg IFQ occupant latency (cycle's)
ifq_full                     0.6265 # fraction of time (cycle's) IFQ was full
RUU_count                6671960615 # cumulative RUU occupancy
RUU_fcount                230291105 # cumulative RUU full count
ruu_occupancy               12.1469 # avg RUU occupancy (insn's)
ruu_rate                     1.5651 # avg RUU dispatch rate (insn/cycle)
ruu_latency                  7.7610 # avg RUU occupant latency (cycle's)
ruu_full                     0.4193 # fraction of time (cycle's) RUU was full
LSQ_count                2233103149 # cumulative LSQ occupancy
LSQ_fcount                134081730 # cumulative LSQ full count
lsq_occupancy                4.0656 # avg LSQ occupancy (insn's)
lsq_rate                     1.5651 # avg LSQ dispatch rate (insn/cycle)
lsq_latency                  2.5976 # avg LSQ occupant latency (cycle's)
lsq_full                     0.2441 # fraction of time (cycle's) LSQ was full
sim_slip                 9890516254 # total number of slip cycles
avg_sim_slip                11.7388 # the average slip between issue and retirement
bpred_bimod.lookups       122328526 # total number of bpred lookups
bpred_bimod.updates       120522975 # total number of updates
bpred_bimod.addr_hits     118590216 # total number of address-predicted hits
bpred_bimod.dir_hits      118682810 # total number of direction-predicted hits (includes addr-hits)
bpred_bimod.misses          1840165 # total number of misses
bpred_bimod.jr_hits        28422339 # total number of address-predicted hits for JR's
bpred_bimod.jr_seen        28430346 # total number of JR's seen
bpred_bimod.jr_non_ras_hits.PP           39 # total number of address-predicted hits for non-RAS JR's
bpred_bimod.jr_non_ras_seen.PP         1276 # total number of non-RAS JR's seen
bpred_bimod.bpred_addr_rate    0.9840 # branch address-prediction rate (i.e., addr-hits/updates)
bpred_bimod.bpred_dir_rate    0.9847 # branch direction-prediction rate (i.e., all-hits/updates)
bpred_bimod.bpred_jr_rate    0.9997 # JR address-prediction rate (i.e., JR addr-hits/JRs seen)
bpred_bimod.bpred_jr_non_ras_rate.PP    0.0306 # non-RAS JR addr-pred rate (ie, non-RAS JR hits/JRs seen)
bpred_bimod.retstack_pushes     29022097 # total number of address pushed onto ret-addr stack
bpred_bimod.retstack_pops     28632870 # total number of address popped off of ret-addr stack
bpred_bimod.used_ras.PP     28429070 # total number of RAS predictions used
bpred_bimod.ras_hits.PP     28422300 # total number of RAS hits
bpred_bimod.ras_rate.PP    0.9998 # RAS prediction rate (i.e., RAS hits/used RAS)
il1.accesses              884608709 # total number of accesses
il1.hits                  866363199 # total number of hits
il1.misses                 18245510 # total number of misses
il1.replacements           18244998 # total number of replacements
il1.writebacks                    0 # total number of writebacks
il1.invalidations                 0 # total number of invalidations
il1.miss_rate                0.0206 # miss rate (i.e., misses/ref)
il1.repl_rate                0.0206 # replacement rate (i.e., repls/ref)
il1.wb_rate                  0.0000 # writeback rate (i.e., wrbks/ref)
il1.inv_rate                 0.0000 # invalidation rate (i.e., invs/ref)
dl1.accesses              261665144 # total number of accesses
dl1.hits                  261137247 # total number of hits
dl1.misses                   527897 # total number of misses
dl1.replacements             527385 # total number of replacements
dl1.writebacks               327433 # total number of writebacks
dl1.invalidations                 0 # total number of invalidations
dl1.miss_rate                0.0020 # miss rate (i.e., misses/ref)
dl1.repl_rate                0.0020 # replacement rate (i.e., repls/ref)
dl1.wb_rate                  0.0013 # writeback rate (i.e., wrbks/ref)
dl1.inv_rate                 0.0000 # invalidation rate (i.e., invs/ref)
ul2.accesses               19100840 # total number of accesses
ul2.hits                   18977975 # total number of hits
ul2.misses                   122865 # total number of misses
ul2.replacements             114673 # total number of replacements
ul2.writebacks               112993 # total number of writebacks
ul2.invalidations                 0 # total number of invalidations
ul2.miss_rate                0.0064 # miss rate (i.e., misses/ref)
ul2.repl_rate                0.0060 # replacement rate (i.e., repls/ref)
ul2.wb_rate                  0.0059 # writeback rate (i.e., wrbks/ref)
ul2.inv_rate                 0.0000 # invalidation rate (i.e., invs/ref)
itlb.accesses             884608709 # total number of accesses
itlb.hits                 884608678 # total number of hits
itlb.misses                      31 # total number of misses
itlb.replacements                 0 # total number of replacements
itlb.writebacks                   0 # total number of writebacks
itlb.invalidations                0 # total number of invalidations
itlb.miss_rate               0.0000 # miss rate (i.e., misses/ref)
itlb.repl_rate               0.0000 # replacement rate (i.e., repls/ref)
itlb.wb_rate                 0.0000 # writeback rate (i.e., wrbks/ref)
itlb.inv_rate                0.0000 # invalidation rate (i.e., invs/ref)
dtlb.accesses             261676957 # total number of accesses
dtlb.hits                 261675576 # total number of hits
dtlb.misses                    1381 # total number of misses
dtlb.replacements              1253 # total number of replacements
dtlb.writebacks                   0 # total number of writebacks
dtlb.invalidations                0 # total number of invalidations
dtlb.miss_rate               0.0000 # miss rate (i.e., misses/ref)
dtlb.repl_rate               0.0000 # replacement rate (i.e., repls/ref)
dtlb.wb_rate                 0.0000 # writeback rate (i.e., wrbks/ref)
dtlb.inv_rate                0.0000 # invalidation rate (i.e., invs/ref)
rename_power           229576516.0622 # total power usage of rename unit
bpred_power            690738883.5335 # total power usage of bpred unit
window_power           1210769760.7729 # total power usage of instruction window
lsq_power              529047280.5753 # total power usage of load/store queue
regfile_power          1962256960.5741 # total power usage of arch. regfile
icache_power           1360513407.5290 # total power usage of icache
dcache_power           3342265320.2173 # total power usage of dcache
dcache2_power          1658948291.7917 # total power usage of dcache2
alu_power              6481761788.9714 # total power usage of alu
falu_power             3922085200.5482 # total power usage of falu
resultbus_power        1261974736.0416 # total power usage of resultbus
clock_power            11813458879.4030 # total power usage of clock
avg_rename_power             0.4180 # avg power usage of rename unit
avg_bpred_power              1.2576 # avg power usage of bpred unit
avg_window_power             2.2043 # avg power usage of instruction window
avg_lsq_power                0.9632 # avg power usage of lsq
avg_regfile_power            3.5725 # avg power usage of arch. regfile
avg_icache_power             2.4769 # avg power usage of icache
avg_dcache_power             6.0849 # avg power usage of dcache
avg_dcache2_power            3.0203 # avg power usage of dcache2
avg_alu_power               11.8007 # avg power usage of alu
avg_falu_power               7.1405 # avg power usage of falu
avg_resultbus_power          2.2975 # avg power usage of resultbus
avg_clock_power             21.5075 # avg power usage of clock
fetch_stage_power      2051252291.0625 # total power usage of fetch stage
dispatch_stage_power   229576516.0622 # total power usage of dispatch stage
issue_stage_power      14484767178.3700 # total power usage of issue stage
avg_fetch_power              3.7345 # average power of fetch unit per cycle
avg_dispatch_power           0.4180 # average power of dispatch unit per cycle
avg_issue_power             26.3709 # average power of issue unit per cycle
total_power            30541311825.4717 # total power per cycle
avg_total_power_cycle       55.6033 # average total power per cycle
avg_total_power_cycle_nofp_nod2      45.4425 # average total power per cycle
avg_total_power_insn        35.5264 # average total power per insn
avg_total_power_insn_nofp_nod2      29.0344 # average total power per insn
rename_power_cc1       125408159.3579 # total power usage of rename unit_cc1
bpred_power_cc1        123427406.9081 # total power usage of bpred unit_cc1
window_power_cc1       911478312.8859 # total power usage of instruction window_cc1
lsq_power_cc1          77948854.0927 # total power usage of lsq_cc1
regfile_power_cc1      1018038477.4241 # total power usage of arch. regfile_cc1
icache_power_cc1       784415824.4810 # total power usage of icache_cc1
dcache_power_cc1       994789459.4500 # total power usage of dcache_cc1
dcache2_power_cc1      56697782.6415 # total power usage of dcache2_cc1
alu_power_cc1          2335554282.4067 # total power usage of alu_cc1
resultbus_power_cc1    633166956.2868 # total power usage of resultbus_cc1
clock_power_cc1        4972792788.4514 # total power usage of clock_cc1
avg_rename_power_cc1         0.2283 # avg power usage of rename unit_cc1
avg_bpred_power_cc1          0.2247 # avg power usage of bpred unit_cc1
avg_window_power_cc1         1.6594 # avg power usage of instruction window_cc1
avg_lsq_power_cc1            0.1419 # avg power usage of lsq_cc1
avg_regfile_power_cc1        1.8534 # avg power usage of arch. regfile_cc1
avg_icache_power_cc1         1.4281 # avg power usage of icache_cc1
avg_dcache_power_cc1         1.8111 # avg power usage of dcache_cc1
avg_dcache2_power_cc1        0.1032 # avg power usage of dcache2_cc1
avg_alu_power_cc1            4.2521 # avg power usage of alu_cc1
avg_resultbus_power_cc1       1.1527 # avg power usage of resultbus_cc1
avg_clock_power_cc1          9.0534 # avg power usage of clock_cc1
fetch_stage_power_cc1  907843231.3890 # total power usage of fetch stage_cc1
dispatch_stage_power_cc1 125408159.3579 # total power usage of dispatch stage_cc1
issue_stage_power_cc1  5009635647.7636 # total power usage of issue stage_cc1
avg_fetch_power_cc1          1.6528 # average power of fetch unit per cycle_cc1
avg_dispatch_power_cc1       0.2283 # average power of dispatch unit per cycle_cc1
avg_issue_power_cc1          9.1205 # average power of issue unit per cycle_cc1
total_power_cycle_cc1  12033718304.3861 # total power per cycle_cc1
avg_total_power_cycle_cc1      21.9085 # average total power per cycle_cc1
avg_total_power_insn_cc1      13.9979 # average total power per insn_cc1
rename_power_cc2       89822270.7614 # total power usage of rename unit_cc2
bpred_power_cc2        75782115.3839 # total power usage of bpred unit_cc2
window_power_cc2       640690337.6489 # total power usage of instruction window_cc2
lsq_power_cc2          61438512.4780 # total power usage of lsq_cc2
regfile_power_cc2      307512611.2633 # total power usage of arch. regfile_cc2
icache_power_cc2       784415824.4810 # total power usage of icache_cc2
dcache_power_cc2       796103936.8558 # total power usage of dcache_cc2
dcache2_power_cc2      28844849.9072 # total power usage of dcache2_cc2
alu_power_cc2          1277341217.5274 # total power usage of alu_cc2
resultbus_power_cc2    371760956.4421 # total power usage of resultbus_cc2
clock_power_cc2        3098584675.1742 # total power usage of clock_cc2
avg_rename_power_cc2         0.1635 # avg power usage of rename unit_cc2
avg_bpred_power_cc2          0.1380 # avg power usage of bpred unit_cc2
avg_window_power_cc2         1.1664 # avg power usage of instruction window_cc2
avg_lsq_power_cc2            0.1119 # avg power usage of instruction lsq_cc2
avg_regfile_power_cc2        0.5599 # avg power usage of arch. regfile_cc2
avg_icache_power_cc2         1.4281 # avg power usage of icache_cc2
avg_dcache_power_cc2         1.4494 # avg power usage of dcache_cc2
avg_dcache2_power_cc2        0.0525 # avg power usage of dcache2_cc2
avg_alu_power_cc2            2.3255 # avg power usage of alu_cc2
avg_resultbus_power_cc2       0.6768 # avg power usage of resultbus_cc2
avg_clock_power_cc2          5.6413 # avg power usage of clock_cc2
fetch_stage_power_cc2  860197939.8649 # total power usage of fetch stage_cc2
dispatch_stage_power_cc2 89822270.7614 # total power usage of dispatch stage_cc2
issue_stage_power_cc2  3176179810.8593 # total power usage of issue stage_cc2
avg_fetch_power_cc2          1.5661 # average power of fetch unit per cycle_cc2
avg_dispatch_power_cc2       0.1635 # average power of dispatch unit per cycle_cc2
avg_issue_power_cc2          5.7825 # average power of issue unit per cycle_cc2
total_power_cycle_cc2  7532297307.9231 # total power per cycle_cc2
avg_total_power_cycle_cc2      13.7133 # average total power per cycle_cc2
avg_total_power_insn_cc2       8.7617 # average total power per insn_cc2
rename_power_cc3       100239106.4055 # total power usage of rename unit_cc3
bpred_power_cc3        133101139.8720 # total power usage of bpred unit_cc3
window_power_cc3       661072460.6929 # total power usage of instruction window_cc3
lsq_power_cc3          106029557.1990 # total power usage of lsq_cc3
regfile_power_cc3      378471737.5042 # total power usage of arch. regfile_cc3
icache_power_cc3       842025579.4372 # total power usage of icache_cc3
dcache_power_cc3       1031852656.2352 # total power usage of dcache_cc3
dcache2_power_cc3      189070023.5985 # total power usage of dcache2_cc3
alu_power_cc3          1691961973.7525 # total power usage of alu_cc3
resultbus_power_cc3    410245870.6224 # total power usage of resultbus_cc3
clock_power_cc3        3742170482.8785 # total power usage of clock_cc3
avg_rename_power_cc3         0.1825 # avg power usage of rename unit_cc3
avg_bpred_power_cc3          0.2423 # avg power usage of bpred unit_cc3
avg_window_power_cc3         1.2035 # avg power usage of instruction window_cc3
avg_lsq_power_cc3            0.1930 # avg power usage of instruction lsq_cc3
avg_regfile_power_cc3        0.6890 # avg power usage of arch. regfile_cc3
avg_icache_power_cc3         1.5330 # avg power usage of icache_cc3
avg_dcache_power_cc3         1.8786 # avg power usage of dcache_cc3
avg_dcache2_power_cc3        0.3442 # avg power usage of dcache2_cc3
avg_alu_power_cc3            3.0804 # avg power usage of alu_cc3
avg_resultbus_power_cc3       0.7469 # avg power usage of resultbus_cc3
avg_clock_power_cc3          6.8130 # avg power usage of clock_cc3
fetch_stage_power_cc3  975126719.3092 # total power usage of fetch stage_cc3
dispatch_stage_power_cc3 100239106.4055 # total power usage of dispatch stage_cc3
issue_stage_power_cc3  4090232542.1006 # total power usage of issue stage_cc3
avg_fetch_power_cc3          1.7753 # average power of fetch unit per cycle_cc3
avg_dispatch_power_cc3       0.1825 # average power of dispatch unit per cycle_cc3
avg_issue_power_cc3          7.4467 # average power of issue unit per cycle_cc3
total_power_cycle_cc3  9286240588.1979 # total power per cycle_cc3
avg_total_power_cycle_cc3      16.9065 # average total power per cycle_cc3
avg_total_power_insn_cc3      10.8020 # average total power per insn_cc3
total_rename_access       859614235 # total number accesses of rename unit
total_bpred_access        120522975 # total number accesses of bpred unit
total_window_access      3200188808 # total number accesses of instruction window
total_lsq_access          261689999 # total number accesses of load/store queue
total_regfile_access     1266732189 # total number accesses of arch. regfile
total_icache_access       884699207 # total number accesses of icache
total_dcache_access       261665144 # total number accesses of dcache
total_dcache2_access       19100840 # total number accesses of dcache2
total_alu_access          821109748 # total number accesses of alu
total_resultbus_access    906766953 # total number accesses of resultbus
avg_rename_access            1.5650 # avg number accesses of rename unit
avg_bpred_access             0.2194 # avg number accesses of bpred unit
avg_window_access            5.8262 # avg number accesses of instruction window
avg_lsq_access               0.4764 # avg number accesses of lsq
avg_regfile_access           2.3062 # avg number accesses of arch. regfile
avg_icache_access            1.6107 # avg number accesses of icache
avg_dcache_access            0.4764 # avg number accesses of dcache
avg_dcache2_access           0.0348 # avg number accesses of dcache2
avg_alu_access               1.4949 # avg number accesses of alu
avg_resultbus_access         1.6509 # avg number accesses of resultbus
max_rename_access                 4 # max number accesses of rename unit
max_bpred_access                  4 # max number accesses of bpred unit
max_window_access                16 # max number accesses of instruction window
max_lsq_access                    6 # max number accesses of load/store queue
max_regfile_access               12 # max number accesses of arch. regfile
max_icache_access                 4 # max number accesses of icache
max_dcache_access                 4 # max number accesses of dcache
max_dcache2_access                5 # max number accesses of dcache2
max_alu_access                    4 # max number accesses of alu
max_resultbus_access              9 # max number accesses of resultbus
max_cycle_power_cc1         47.1391 # maximum cycle power usage of cc1
max_cycle_power_cc2         31.7751 # maximum cycle power usage of cc2
max_cycle_power_cc3         32.7408 # maximum cycle power usage of cc3
sim_invalid_addrs                 2 # total non-speculative bogus addresses seen (debug var)
ld_text_base             0x00400000 # program text (code) segment base
ld_text_size                 124464 # program text (code) size in bytes
ld_data_base             0x10000000 # program initialized data segment base
ld_data_size                  13588 # program init'ed `.data' and uninit'ed `.bss' size in bytes
ld_stack_base            0x7fffc000 # program stack segment base (highest address in stack)
ld_stack_size                 16384 # program initial stack size
ld_prog_entry            0x00400140 # program entry point (initial PC)
ld_environ_base          0x7fff8000 # program environment base address address
ld_target_big_endian              0 # target executable endian-ness, non-zero if big endian
mem.page_count                  962 # total number of pages allocated
mem.page_mem                  3848k # total size of memory pages allocated
mem.ptab_misses                1272 # total first level page table misses
mem.ptab_accesses        5602281734 # total page table accesses
mem.ptab_miss_rate           0.0000 # first level page table miss rate

