sim-outorder: SimpleScalar/PISA Tool Set version 3.0 of August, 2003.
Copyright (c) 1994-2003 by Todd M. Austin, Ph.D. and SimpleScalar, LLC.
All Rights Reserved. This version of SimpleScalar is licensed for academic
non-commercial use.  No portion of this work may be used by any commercial
entity, or for any commercial purpose, without the prior written permission
of SimpleScalar, LLC (info@simplescalar.com).


Processor Parameters:
Issue Width: 4
Window Size: 32
Number of Virtual Registers: 32
Number of Physical Registers: 32
Datapath Width: 64
Total Power Consumption: 60.9036
Branch Predictor Power Consumption: 1.25755  (2.13%)
 branch target buffer power (W): 0.902794
 local predict power (W): 0.0879711
 global predict power (W): 0.0996078
 chooser power (W): 0.0702439
 RAS power (W): 0.0969383
Rename Logic Power Consumption: 0.484305  (0.822%)
 Instruction Decode Power (W): 0.0159915
 RAT decode_power (W): 0.113514
 RAT wordline_power (W): 0.0354288
 RAT bitline_power (W): 0.308463
 DCL Comparators (W): 0.0109075
Instruction Window Power Consumption: 3.88117  (6.59%)
 tagdrive (W): 0.19858
 tagmatch (W): 0.0805895
 Selection Logic (W): 0.0295277
 decode_power (W): 0.113514
 wordline_power (W): 0.0844643
 bitline_power (W): 3.37449
Load/Store Queue Power Consumption: 1.18197  (2.01%)
 tagdrive (W): 0.457232
 tagmatch (W): 0.100774
 decode_power (W): 0.00799577
 wordline_power (W): 0.0150119
 bitline_power (W): 0.60096
Arch. Register File Power Consumption: 3.57247  (6.06%)
 decode_power (W): 0.113514
 wordline_power (W): 0.0844643
 bitline_power (W): 3.37449
Result Bus Power Consumption: 2.75173  (4.67%)
Total Clock Power: 23.0336  (39.1%)
Int ALU Power: 4.66013  (7.91%)
FP ALU Power: 7.14052  (12.1%)
Instruction Cache Power Consumption: 1.99903  (3.39%)
 decode_power (W): 0.362444
 wordline_power (W): 0.0491838
 bitline_power (W): 1.14691
 senseamp_power (W): 0.192
 tagarray_power (W): 0.248491
Itlb_power (W): 0.263317 (0.447%)
Data Cache Power Consumption: 4.75559  (8.07%)
 decode_power (W): 0.651055
 wordline_power (W): 0.196735
 bitline_power (W): 2.71235
 senseamp_power (W): 0.768
 tagarray_power (W): 0.427443
Dtlb_power (W): 0.901877 (1.53%)
Level 2 Cache Power Consumption: 3.02027 (5.13%)
 decode_power (W): 0.41817
 wordline_power (W): 0.0225599
 bitline_power (W): 1.5122
 senseamp_power (W): 0.096
 tagarray_power (W): 0.971338
sim: command line: sim-outorder -redir:sim /home/ubuntu/ece568-single-core-dse/results/combined-ruu-32.out -config /home/ubuntu/ece568-single-core-dse/configs/step3/combined-ruu-32.cfg eeg 

sim: simulation started @ Mon Mar  7 05:08:24 2016, options follow:

sim-outorder: This simulator implements a very detailed out-of-order issue
superscalar processor with a two-level memory system and speculative
execution support.  This simulator is a performance simulator, tracking the
latency of all pipeline operations.

# -config                     # load configuration from a file
# -dumpconfig                 # dump configuration to a file
# -h                    false # print help message    
# -v                    false # verbose operation     
# -d                    false # enable debug message  
# -i                    false # start in Dlite debugger
-seed                       1 # random number generator seed (0 for timer seed)
# -q                    false # initialize and terminate immediately
# -chkpt               <null> # restore EIO trace execution from <fname>
# -redir:sim     /home/ubuntu/ece568-single-core-dse/results/combined-ruu-32.out # redirect simulator output to file (non-interactive only)
# -redir:prog          <null> # redirect simulated program output to file
-nice                       0 # simulator scheduling priority
-max:inst                   0 # maximum number of inst's to execute
-fastfwd                    0 # number of insts skipped before timing starts
# -ptrace              <null> # generate pipetrace, i.e., <fname|stdout|stderr> <range>
-fetch:ifqsize              4 # instruction fetch queue size (in insts)
-fetch:mplat                3 # extra branch mis-prediction latency
-fetch:speed                1 # speed of front-end of machine relative to execution core
-bpred                   comb # branch predictor type {nottaken|taken|perfect|bimod|2lev|comb}
-bpred:bimod     2048 # bimodal predictor config (<table size>)
-bpred:2lev      1 1024 8 0 # 2-level predictor config (<l1size> <l2size> <hist_size> <xor>)
-bpred:comb      1024 # combining predictor config (<meta_table_size>)
-bpred:ras                  8 # return address stack size (0 for no return stack)
-bpred:btb       128 2 # BTB config (<num_sets> <associativity>)
# -bpred:spec_update       <null> # speculative predictors update in {ID|WB} (default non-spec)
-decode:width               4 # instruction decode B/W (insts/cycle)
-issue:width                4 # instruction issue B/W (insts/cycle)
-issue:inorder          false # run pipeline with in-order issue
-issue:wrongpath         true # issue instructions down wrong execution paths
-commit:width               4 # instruction commit B/W (insts/cycle)
-ruu:size                  32 # register update unit (RUU) size
-lsq:size                   8 # load/store queue (LSQ) size
-cache:dl1       dl1:64:64:4:l # l1 data cache config, i.e., {<config>|none}
-cache:dl1lat               1 # l1 data cache hit latency (in cycles)
-cache:dl2       ul2:2048:32:4:l # l2 data cache config, i.e., {<config>|none}
-cache:dl2lat               6 # l2 data cache hit latency (in cycles)
-cache:il1       il1:256:64:1:l # l1 inst cache config, i.e., {<config>|dl1|dl2|none}
-cache:il1lat               1 # l1 instruction cache hit latency (in cycles)
-cache:il2                dl2 # l2 instruction cache config, i.e., {<config>|dl2|none}
-cache:il2lat               6 # l2 instruction cache hit latency (in cycles)
-cache:flush            false # flush caches on system calls
-cache:icompress        false # convert 64-bit inst addresses to 32-bit inst equivalents
-mem:lat         18 2 # memory access latency (<first_chunk> <inter_chunk>)
-mem:width                  8 # memory access bus width (in bytes)
-tlb:itlb        itlb:16:4096:4:l # instruction TLB config, i.e., {<config>|none}
-tlb:dtlb        dtlb:32:4096:4:l # data TLB config, i.e., {<config>|none}
-tlb:lat                   30 # inst/data TLB miss latency (in cycles)
-res:ialu                   4 # total number of integer ALU's available
-res:imult                  1 # total number of integer multiplier/dividers available
-res:memport                2 # total number of memory system ports available (to CPU)
-res:fpalu                  2 # total number of floating point ALU's available
-res:fpmult                 2 # total number of floating point multiplier/dividers available
# -pcstat              <null> # profile stat(s) against text addr's (mult uses ok)
-bugcompat              false # operate in backward-compatible bugs mode (for testing only)

  Pipetrace range arguments are formatted as follows:

    {{@|#}<start>}:{{@|#|+}<end>}

  Both ends of the range are optional, if neither are specified, the entire
  execution is traced.  Ranges that start with a `@' designate an address
  range to be traced, those that start with an `#' designate a cycle count
  range.  All other range values represent an instruction count range.  The
  second argument, if specified with a `+', indicates a value relative
  to the first argument, e.g., 1000:+100 == 1000:1100.  Program symbols may
  be used in all contexts.

    Examples:   -ptrace FOO.trc #0:#1000
                -ptrace BAR.trc @2000:
                -ptrace BLAH.trc :1500
                -ptrace UXXE.trc :
                -ptrace FOOBAR.trc @main:+278

  Branch predictor configuration examples for 2-level predictor:
    Configurations:   N, M, W, X
      N   # entries in first level (# of shift register(s))
      W   width of shift register(s)
      M   # entries in 2nd level (# of counters, or other FSM)
      X   (yes-1/no-0) xor history and address for 2nd level index
    Sample predictors:
      GAg     : 1, W, 2^W, 0
      GAp     : 1, W, M (M > 2^W), 0
      PAg     : N, W, 2^W, 0
      PAp     : N, W, M (M == 2^(N+W)), 0
      gshare  : 1, W, 2^W, 1
  Predictor `comb' combines a bimodal and a 2-level predictor.

  The cache config parameter <config> has the following format:

    <name>:<nsets>:<bsize>:<assoc>:<repl>

    <name>   - name of the cache being defined
    <nsets>  - number of sets in the cache
    <bsize>  - block size of the cache
    <assoc>  - associativity of the cache
    <repl>   - block replacement strategy, 'l'-LRU, 'f'-FIFO, 'r'-random

    Examples:   -cache:dl1 dl1:4096:32:1:l
                -dtlb dtlb:128:4096:32:r

  Cache levels can be unified by pointing a level of the instruction cache
  hierarchy at the data cache hiearchy using the "dl1" and "dl2" cache
  configuration arguments.  Most sensible combinations are supported, e.g.,

    A unified l2 cache (il2 is pointed at dl2):
      -cache:il1 il1:128:64:1:l -cache:il2 dl2
      -cache:dl1 dl1:256:32:1:l -cache:dl2 ul2:1024:64:2:l

    Or, a fully unified cache hierarchy (il1 pointed at dl1):
      -cache:il1 dl1
      -cache:dl1 ul1:256:32:1:l -cache:dl2 ul2:1024:64:2:l



sim: ** starting performance simulation **
fatal: cache: access error: access spans block, addr 0x00400140

sim: ** simulation statistics **
sim_num_insn                      0 # total number of instructions committed
sim_num_refs                      0 # total number of loads and stores committed
sim_num_loads                     0 # total number of loads committed
sim_num_stores               0.0000 # total number of stores committed
sim_num_branches                  0 # total number of branches committed
sim_elapsed_time                  1 # total simulation time in seconds
sim_inst_rate                0.0000 # simulation speed (in insts/sec)
sim_total_insn                    0 # total number of instructions executed
sim_total_refs                    0 # total number of loads and stores executed
sim_total_loads                   0 # total number of loads executed
sim_total_stores             0.0000 # total number of stores executed
sim_total_branches                0 # total number of branches executed
sim_cycle                         0 # total simulation time in cycles
sim_IPC                <error: divide by zero> # instructions per cycle
sim_CPI                <error: divide by zero> # cycles per instruction
sim_exec_BW            <error: divide by zero> # total instructions (mis-spec + committed) per cycle
sim_IPB                <error: divide by zero> # instruction per branch
IFQ_count                         0 # cumulative IFQ occupancy
IFQ_fcount                        0 # cumulative IFQ full count
ifq_occupancy          <error: divide by zero> # avg IFQ occupancy (insn's)
ifq_rate               <error: divide by zero> # avg IFQ dispatch rate (insn/cycle)
ifq_latency            <error: divide by zero> # avg IFQ occupant latency (cycle's)
ifq_full               <error: divide by zero> # fraction of time (cycle's) IFQ was full
RUU_count                         0 # cumulative RUU occupancy
RUU_fcount                        0 # cumulative RUU full count
ruu_occupancy          <error: divide by zero> # avg RUU occupancy (insn's)
ruu_rate               <error: divide by zero> # avg RUU dispatch rate (insn/cycle)
ruu_latency            <error: divide by zero> # avg RUU occupant latency (cycle's)
ruu_full               <error: divide by zero> # fraction of time (cycle's) RUU was full
LSQ_count                         0 # cumulative LSQ occupancy
LSQ_fcount                        0 # cumulative LSQ full count
lsq_occupancy          <error: divide by zero> # avg LSQ occupancy (insn's)
lsq_rate               <error: divide by zero> # avg LSQ dispatch rate (insn/cycle)
lsq_latency            <error: divide by zero> # avg LSQ occupant latency (cycle's)
lsq_full               <error: divide by zero> # fraction of time (cycle's) LSQ was full
sim_slip                          0 # total number of slip cycles
avg_sim_slip           <error: divide by zero> # the average slip between issue and retirement
bpred_comb.lookups                0 # total number of bpred lookups
bpred_comb.updates                0 # total number of updates
bpred_comb.addr_hits              0 # total number of address-predicted hits
bpred_comb.dir_hits               0 # total number of direction-predicted hits (includes addr-hits)
bpred_comb.used_bimod             0 # total number of bimodal predictions used
bpred_comb.used_2lev              0 # total number of 2-level predictions used
bpred_comb.misses                 0 # total number of misses
bpred_comb.jr_hits                0 # total number of address-predicted hits for JR's
bpred_comb.jr_seen                0 # total number of JR's seen
bpred_comb.jr_non_ras_hits.PP            0 # total number of address-predicted hits for non-RAS JR's
bpred_comb.jr_non_ras_seen.PP            0 # total number of non-RAS JR's seen
bpred_comb.bpred_addr_rate <error: divide by zero> # branch address-prediction rate (i.e., addr-hits/updates)
bpred_comb.bpred_dir_rate <error: divide by zero> # branch direction-prediction rate (i.e., all-hits/updates)
bpred_comb.bpred_jr_rate <error: divide by zero> # JR address-prediction rate (i.e., JR addr-hits/JRs seen)
bpred_comb.bpred_jr_non_ras_rate.PP <error: divide by zero> # non-RAS JR addr-pred rate (ie, non-RAS JR hits/JRs seen)
bpred_comb.retstack_pushes            0 # total number of address pushed onto ret-addr stack
bpred_comb.retstack_pops            0 # total number of address popped off of ret-addr stack
bpred_comb.used_ras.PP            0 # total number of RAS predictions used
bpred_comb.ras_hits.PP            0 # total number of RAS hits
bpred_comb.ras_rate.PP <error: divide by zero> # RAS prediction rate (i.e., RAS hits/used RAS)
il1.accesses                      1 # total number of accesses
il1.hits                          0 # total number of hits
il1.misses                        1 # total number of misses
il1.replacements                  0 # total number of replacements
il1.writebacks                    0 # total number of writebacks
il1.invalidations                 0 # total number of invalidations
il1.miss_rate                1.0000 # miss rate (i.e., misses/ref)
il1.repl_rate                0.0000 # replacement rate (i.e., repls/ref)
il1.wb_rate                  0.0000 # writeback rate (i.e., wrbks/ref)
il1.inv_rate                 0.0000 # invalidation rate (i.e., invs/ref)
dl1.accesses                      0 # total number of accesses
dl1.hits                          0 # total number of hits
dl1.misses                        0 # total number of misses
dl1.replacements                  0 # total number of replacements
dl1.writebacks                    0 # total number of writebacks
dl1.invalidations                 0 # total number of invalidations
dl1.miss_rate          <error: divide by zero> # miss rate (i.e., misses/ref)
dl1.repl_rate          <error: divide by zero> # replacement rate (i.e., repls/ref)
dl1.wb_rate            <error: divide by zero> # writeback rate (i.e., wrbks/ref)
dl1.inv_rate           <error: divide by zero> # invalidation rate (i.e., invs/ref)
ul2.accesses                      0 # total number of accesses
ul2.hits                          0 # total number of hits
ul2.misses                        0 # total number of misses
ul2.replacements                  0 # total number of replacements
ul2.writebacks                    0 # total number of writebacks
ul2.invalidations                 0 # total number of invalidations
ul2.miss_rate          <error: divide by zero> # miss rate (i.e., misses/ref)
ul2.repl_rate          <error: divide by zero> # replacement rate (i.e., repls/ref)
ul2.wb_rate            <error: divide by zero> # writeback rate (i.e., wrbks/ref)
ul2.inv_rate           <error: divide by zero> # invalidation rate (i.e., invs/ref)
itlb.accesses                     0 # total number of accesses
itlb.hits                         0 # total number of hits
itlb.misses                       0 # total number of misses
itlb.replacements                 0 # total number of replacements
itlb.writebacks                   0 # total number of writebacks
itlb.invalidations                0 # total number of invalidations
itlb.miss_rate         <error: divide by zero> # miss rate (i.e., misses/ref)
itlb.repl_rate         <error: divide by zero> # replacement rate (i.e., repls/ref)
itlb.wb_rate           <error: divide by zero> # writeback rate (i.e., wrbks/ref)
itlb.inv_rate          <error: divide by zero> # invalidation rate (i.e., invs/ref)
dtlb.accesses                     0 # total number of accesses
dtlb.hits                         0 # total number of hits
dtlb.misses                       0 # total number of misses
dtlb.replacements                 0 # total number of replacements
dtlb.writebacks                   0 # total number of writebacks
dtlb.invalidations                0 # total number of invalidations
dtlb.miss_rate         <error: divide by zero> # miss rate (i.e., misses/ref)
dtlb.repl_rate         <error: divide by zero> # replacement rate (i.e., repls/ref)
dtlb.wb_rate           <error: divide by zero> # writeback rate (i.e., wrbks/ref)
dtlb.inv_rate          <error: divide by zero> # invalidation rate (i.e., invs/ref)
rename_power                 0.0000 # total power usage of rename unit
bpred_power                  0.0000 # total power usage of bpred unit
window_power                 0.0000 # total power usage of instruction window
lsq_power                    0.0000 # total power usage of load/store queue
regfile_power                0.0000 # total power usage of arch. regfile
icache_power                 0.0000 # total power usage of icache
dcache_power                 0.0000 # total power usage of dcache
dcache2_power                0.0000 # total power usage of dcache2
alu_power                    0.0000 # total power usage of alu
falu_power                   0.0000 # total power usage of falu
resultbus_power              0.0000 # total power usage of resultbus
clock_power                  0.0000 # total power usage of clock
avg_rename_power       <error: divide by zero> # avg power usage of rename unit
avg_bpred_power        <error: divide by zero> # avg power usage of bpred unit
avg_window_power       <error: divide by zero> # avg power usage of instruction window
avg_lsq_power          <error: divide by zero> # avg power usage of lsq
avg_regfile_power      <error: divide by zero> # avg power usage of arch. regfile
avg_icache_power       <error: divide by zero> # avg power usage of icache
avg_dcache_power       <error: divide by zero> # avg power usage of dcache
avg_dcache2_power      <error: divide by zero> # avg power usage of dcache2
avg_alu_power          <error: divide by zero> # avg power usage of alu
avg_falu_power         <error: divide by zero> # avg power usage of falu
avg_resultbus_power    <error: divide by zero> # avg power usage of resultbus
avg_clock_power        <error: divide by zero> # avg power usage of clock
fetch_stage_power            0.0000 # total power usage of fetch stage
dispatch_stage_power         0.0000 # total power usage of dispatch stage
issue_stage_power            0.0000 # total power usage of issue stage
avg_fetch_power        <error: divide by zero> # average power of fetch unit per cycle
avg_dispatch_power     <error: divide by zero> # average power of dispatch unit per cycle
avg_issue_power        <error: divide by zero> # average power of issue unit per cycle
total_power                  0.0000 # total power per cycle
avg_total_power_cycle  <error: divide by zero> # average total power per cycle
avg_total_power_cycle_nofp_nod2 <error: divide by zero> # average total power per cycle
avg_total_power_insn   <error: divide by zero> # average total power per insn
avg_total_power_insn_nofp_nod2 <error: divide by zero> # average total power per insn
rename_power_cc1             0.0000 # total power usage of rename unit_cc1
bpred_power_cc1              0.0000 # total power usage of bpred unit_cc1
window_power_cc1             0.0000 # total power usage of instruction window_cc1
lsq_power_cc1                0.0000 # total power usage of lsq_cc1
regfile_power_cc1            0.0000 # total power usage of arch. regfile_cc1
icache_power_cc1             0.0000 # total power usage of icache_cc1
dcache_power_cc1             0.0000 # total power usage of dcache_cc1
dcache2_power_cc1            0.0000 # total power usage of dcache2_cc1
alu_power_cc1                0.0000 # total power usage of alu_cc1
resultbus_power_cc1          0.0000 # total power usage of resultbus_cc1
clock_power_cc1              0.0000 # total power usage of clock_cc1
avg_rename_power_cc1   <error: divide by zero> # avg power usage of rename unit_cc1
avg_bpred_power_cc1    <error: divide by zero> # avg power usage of bpred unit_cc1
avg_window_power_cc1   <error: divide by zero> # avg power usage of instruction window_cc1
avg_lsq_power_cc1      <error: divide by zero> # avg power usage of lsq_cc1
avg_regfile_power_cc1  <error: divide by zero> # avg power usage of arch. regfile_cc1
avg_icache_power_cc1   <error: divide by zero> # avg power usage of icache_cc1
avg_dcache_power_cc1   <error: divide by zero> # avg power usage of dcache_cc1
avg_dcache2_power_cc1  <error: divide by zero> # avg power usage of dcache2_cc1
avg_alu_power_cc1      <error: divide by zero> # avg power usage of alu_cc1
avg_resultbus_power_cc1 <error: divide by zero> # avg power usage of resultbus_cc1
avg_clock_power_cc1    <error: divide by zero> # avg power usage of clock_cc1
fetch_stage_power_cc1        0.0000 # total power usage of fetch stage_cc1
dispatch_stage_power_cc1       0.0000 # total power usage of dispatch stage_cc1
issue_stage_power_cc1        0.0000 # total power usage of issue stage_cc1
avg_fetch_power_cc1    <error: divide by zero> # average power of fetch unit per cycle_cc1
avg_dispatch_power_cc1 <error: divide by zero> # average power of dispatch unit per cycle_cc1
avg_issue_power_cc1    <error: divide by zero> # average power of issue unit per cycle_cc1
total_power_cycle_cc1        0.0000 # total power per cycle_cc1
avg_total_power_cycle_cc1 <error: divide by zero> # average total power per cycle_cc1
avg_total_power_insn_cc1 <error: divide by zero> # average total power per insn_cc1
rename_power_cc2             0.0000 # total power usage of rename unit_cc2
bpred_power_cc2              0.0000 # total power usage of bpred unit_cc2
window_power_cc2             0.0000 # total power usage of instruction window_cc2
lsq_power_cc2                0.0000 # total power usage of lsq_cc2
regfile_power_cc2            0.0000 # total power usage of arch. regfile_cc2
icache_power_cc2             0.0000 # total power usage of icache_cc2
dcache_power_cc2             0.0000 # total power usage of dcache_cc2
dcache2_power_cc2            0.0000 # total power usage of dcache2_cc2
alu_power_cc2                0.0000 # total power usage of alu_cc2
resultbus_power_cc2          0.0000 # total power usage of resultbus_cc2
clock_power_cc2              0.0000 # total power usage of clock_cc2
avg_rename_power_cc2   <error: divide by zero> # avg power usage of rename unit_cc2
avg_bpred_power_cc2    <error: divide by zero> # avg power usage of bpred unit_cc2
avg_window_power_cc2   <error: divide by zero> # avg power usage of instruction window_cc2
avg_lsq_power_cc2      <error: divide by zero> # avg power usage of instruction lsq_cc2
avg_regfile_power_cc2  <error: divide by zero> # avg power usage of arch. regfile_cc2
avg_icache_power_cc2   <error: divide by zero> # avg power usage of icache_cc2
avg_dcache_power_cc2   <error: divide by zero> # avg power usage of dcache_cc2
avg_dcache2_power_cc2  <error: divide by zero> # avg power usage of dcache2_cc2
avg_alu_power_cc2      <error: divide by zero> # avg power usage of alu_cc2
avg_resultbus_power_cc2 <error: divide by zero> # avg power usage of resultbus_cc2
avg_clock_power_cc2    <error: divide by zero> # avg power usage of clock_cc2
fetch_stage_power_cc2        0.0000 # total power usage of fetch stage_cc2
dispatch_stage_power_cc2       0.0000 # total power usage of dispatch stage_cc2
issue_stage_power_cc2        0.0000 # total power usage of issue stage_cc2
avg_fetch_power_cc2    <error: divide by zero> # average power of fetch unit per cycle_cc2
avg_dispatch_power_cc2 <error: divide by zero> # average power of dispatch unit per cycle_cc2
avg_issue_power_cc2    <error: divide by zero> # average power of issue unit per cycle_cc2
total_power_cycle_cc2        0.0000 # total power per cycle_cc2
avg_total_power_cycle_cc2 <error: divide by zero> # average total power per cycle_cc2
avg_total_power_insn_cc2 <error: divide by zero> # average total power per insn_cc2
rename_power_cc3             0.0000 # total power usage of rename unit_cc3
bpred_power_cc3              0.0000 # total power usage of bpred unit_cc3
window_power_cc3             0.0000 # total power usage of instruction window_cc3
lsq_power_cc3                0.0000 # total power usage of lsq_cc3
regfile_power_cc3            0.0000 # total power usage of arch. regfile_cc3
icache_power_cc3             0.0000 # total power usage of icache_cc3
dcache_power_cc3             0.0000 # total power usage of dcache_cc3
dcache2_power_cc3            0.0000 # total power usage of dcache2_cc3
alu_power_cc3                0.0000 # total power usage of alu_cc3
resultbus_power_cc3          0.0000 # total power usage of resultbus_cc3
clock_power_cc3              0.0000 # total power usage of clock_cc3
avg_rename_power_cc3   <error: divide by zero> # avg power usage of rename unit_cc3
avg_bpred_power_cc3    <error: divide by zero> # avg power usage of bpred unit_cc3
avg_window_power_cc3   <error: divide by zero> # avg power usage of instruction window_cc3
avg_lsq_power_cc3      <error: divide by zero> # avg power usage of instruction lsq_cc3
avg_regfile_power_cc3  <error: divide by zero> # avg power usage of arch. regfile_cc3
avg_icache_power_cc3   <error: divide by zero> # avg power usage of icache_cc3
avg_dcache_power_cc3   <error: divide by zero> # avg power usage of dcache_cc3
avg_dcache2_power_cc3  <error: divide by zero> # avg power usage of dcache2_cc3
avg_alu_power_cc3      <error: divide by zero> # avg power usage of alu_cc3
avg_resultbus_power_cc3 <error: divide by zero> # avg power usage of resultbus_cc3
avg_clock_power_cc3    <error: divide by zero> # avg power usage of clock_cc3
fetch_stage_power_cc3        0.0000 # total power usage of fetch stage_cc3
dispatch_stage_power_cc3       0.0000 # total power usage of dispatch stage_cc3
issue_stage_power_cc3        0.0000 # total power usage of issue stage_cc3
avg_fetch_power_cc3    <error: divide by zero> # average power of fetch unit per cycle_cc3
avg_dispatch_power_cc3 <error: divide by zero> # average power of dispatch unit per cycle_cc3
avg_issue_power_cc3    <error: divide by zero> # average power of issue unit per cycle_cc3
total_power_cycle_cc3        0.0000 # total power per cycle_cc3
avg_total_power_cycle_cc3 <error: divide by zero> # average total power per cycle_cc3
avg_total_power_insn_cc3 <error: divide by zero> # average total power per insn_cc3
total_rename_access               0 # total number accesses of rename unit
total_bpred_access                0 # total number accesses of bpred unit
total_window_access               0 # total number accesses of instruction window
total_lsq_access                  0 # total number accesses of load/store queue
total_regfile_access              0 # total number accesses of arch. regfile
total_icache_access               0 # total number accesses of icache
total_dcache_access               0 # total number accesses of dcache
total_dcache2_access              0 # total number accesses of dcache2
total_alu_access                  0 # total number accesses of alu
total_resultbus_access            0 # total number accesses of resultbus
avg_rename_access      <error: divide by zero> # avg number accesses of rename unit
avg_bpred_access       <error: divide by zero> # avg number accesses of bpred unit
avg_window_access      <error: divide by zero> # avg number accesses of instruction window
avg_lsq_access         <error: divide by zero> # avg number accesses of lsq
avg_regfile_access     <error: divide by zero> # avg number accesses of arch. regfile
avg_icache_access      <error: divide by zero> # avg number accesses of icache
avg_dcache_access      <error: divide by zero> # avg number accesses of dcache
avg_dcache2_access     <error: divide by zero> # avg number accesses of dcache2
avg_alu_access         <error: divide by zero> # avg number accesses of alu
avg_resultbus_access   <error: divide by zero> # avg number accesses of resultbus
max_rename_access                 0 # max number accesses of rename unit
max_bpred_access                  0 # max number accesses of bpred unit
max_window_access                 0 # max number accesses of instruction window
max_lsq_access                    0 # max number accesses of load/store queue
max_regfile_access                0 # max number accesses of arch. regfile
max_icache_access                 0 # max number accesses of icache
max_dcache_access                 0 # max number accesses of dcache
max_dcache2_access                0 # max number accesses of dcache2
max_alu_access                    0 # max number accesses of alu
max_resultbus_access              0 # max number accesses of resultbus
max_cycle_power_cc1          0.0000 # maximum cycle power usage of cc1
max_cycle_power_cc2          0.0000 # maximum cycle power usage of cc2
max_cycle_power_cc3          0.0000 # maximum cycle power usage of cc3
sim_invalid_addrs                 0 # total non-speculative bogus addresses seen (debug var)
ld_text_base             0x00400000 # program text (code) segment base
ld_text_size                 124464 # program text (code) size in bytes
ld_data_base             0x10000000 # program initialized data segment base
ld_data_size                  13588 # program init'ed `.data' and uninit'ed `.bss' size in bytes
ld_stack_base            0x7fffc000 # program stack segment base (highest address in stack)
ld_stack_size                 16384 # program initial stack size
ld_prog_entry            0x00400140 # program entry point (initial PC)
ld_environ_base          0x7fff8000 # program environment base address address
ld_target_big_endian              0 # target executable endian-ness, non-zero if big endian
mem.page_count                   35 # total number of pages allocated
mem.page_mem                   140k # total size of memory pages allocated
mem.ptab_misses                  35 # total first level page table misses
mem.ptab_accesses            773012 # total page table accesses
mem.ptab_miss_rate           0.0000 # first level page table miss rate

