sim-outorder: SimpleScalar/PISA Tool Set version 3.0 of August, 2003.
Copyright (c) 1994-2003 by Todd M. Austin, Ph.D. and SimpleScalar, LLC.
All Rights Reserved. This version of SimpleScalar is licensed for academic
non-commercial use.  No portion of this work may be used by any commercial
entity, or for any commercial purpose, without the prior written permission
of SimpleScalar, LLC (info@simplescalar.com).


Processor Parameters:
Issue Width: 4
Window Size: 8
Number of Virtual Registers: 32
Number of Physical Registers: 8
Datapath Width: 64
Total Power Consumption: 71.9807
Branch Predictor Power Consumption: 4.52313  (6.46%)
 branch target buffer power (W): 4.16837
 local predict power (W): 0.0879711
 global predict power (W): 0.0996078
 chooser power (W): 0.0702439
 RAS power (W): 0.0969383
Rename Logic Power Consumption: 0.351534  (0.502%)
 Instruction Decode Power (W): 0.0159915
 RAT decode_power (W): 0.113514
 RAT wordline_power (W): 0.0260431
 RAT bitline_power (W): 0.185078
 DCL Comparators (W): 0.0109075
Instruction Window Power Consumption: 1.38003  (1.97%)
 tagdrive (W): 0.0465589
 tagmatch (W): 0.0135476
 Selection Logic (W): 0.00805301
 decode_power (W): 0.0239873
 wordline_power (W): 0.0844643
 bitline_power (W): 1.20342
Load/Store Queue Power Consumption: 0.855275  (1.22%)
 tagdrive (W): 0.457232
 tagmatch (W): 0.100774
 decode_power (W): 0.00799577
 wordline_power (W): 0.0150119
 bitline_power (W): 0.274261
Arch. Register File Power Consumption: 3.57247  (5.1%)
 decode_power (W): 0.113514
 wordline_power (W): 0.0844643
 bitline_power (W): 3.37449
Result Bus Power Consumption: 2.05965  (2.94%)
Total Clock Power: 25.5265  (36.5%)
Int ALU Power: 4.66013  (6.66%)
FP ALU Power: 14.281  (20.4%)
Instruction Cache Power Consumption: 2.21363  (3.16%)
 decode_power (W): 0.779481
 wordline_power (W): 0.028656
 bitline_power (W): 0.886372
 senseamp_power (W): 0.096
 tagarray_power (W): 0.423116
Itlb_power (W): 0.263317 (0.376%)
Data Cache Power Consumption: 5.18303  (7.41%)
 decode_power (W): 0.651055
 wordline_power (W): 0.196735
 bitline_power (W): 2.71235
 senseamp_power (W): 0.768
 tagarray_power (W): 0.854886
Dtlb_power (W): 0.901877 (1.29%)
Level 2 Cache Power Consumption: 4.2091 (6.01%)
 decode_power (W): 0.41817
 wordline_power (W): 0.0430878
 bitline_power (W): 3.0244
 senseamp_power (W): 0.192
 tagarray_power (W): 0.531433
sim: command line: sim-outorder -redir:sim /home/ubuntu/ece568-single-core-dse/results/dp-ruu-8.out -config /home/ubuntu/ece568-single-core-dse/configs/step1-dp/dp-ruu-8.cfg eeg 

sim: simulation started @ Sat Mar  5 22:17:01 2016, options follow:

sim-outorder: This simulator implements a very detailed out-of-order issue
superscalar processor with a two-level memory system and speculative
execution support.  This simulator is a performance simulator, tracking the
latency of all pipeline operations.

# -config                     # load configuration from a file
# -dumpconfig                 # dump configuration to a file
# -h                    false # print help message    
# -v                    false # verbose operation     
# -d                    false # enable debug message  
# -i                    false # start in Dlite debugger
-seed                       1 # random number generator seed (0 for timer seed)
# -q                    false # initialize and terminate immediately
# -chkpt               <null> # restore EIO trace execution from <fname>
# -redir:sim     /home/ubuntu/ece568-single-core-dse/results/dp-ruu-8.out # redirect simulator output to file (non-interactive only)
# -redir:prog          <null> # redirect simulated program output to file
-nice                       0 # simulator scheduling priority
-max:inst                   0 # maximum number of inst's to execute
-fastfwd                    0 # number of insts skipped before timing starts
# -ptrace              <null> # generate pipetrace, i.e., <fname|stdout|stderr> <range>
-fetch:ifqsize              4 # instruction fetch queue size (in insts)
-fetch:mplat                3 # extra branch mis-prediction latency
-fetch:speed                1 # speed of front-end of machine relative to execution core
-bpred                  bimod # branch predictor type {nottaken|taken|perfect|bimod|2lev|comb}
-bpred:bimod     2048 # bimodal predictor config (<table size>)
-bpred:2lev      1 1024 8 0 # 2-level predictor config (<l1size> <l2size> <hist_size> <xor>)
-bpred:comb      1024 # combining predictor config (<meta_table_size>)
-bpred:ras                  8 # return address stack size (0 for no return stack)
-bpred:btb       512 4 # BTB config (<num_sets> <associativity>)
# -bpred:spec_update       <null> # speculative predictors update in {ID|WB} (default non-spec)
-decode:width               4 # instruction decode B/W (insts/cycle)
-issue:width                4 # instruction issue B/W (insts/cycle)
-issue:inorder          false # run pipeline with in-order issue
-issue:wrongpath         true # issue instructions down wrong execution paths
-commit:width               4 # instruction commit B/W (insts/cycle)
-ruu:size                   8 # register update unit (RUU) size
-lsq:size                   8 # load/store queue (LSQ) size
-cache:dl1       dl1:128:32:4:l # l1 data cache config, i.e., {<config>|none}
-cache:dl1lat               1 # l1 data cache hit latency (in cycles)
-cache:dl2       ul2:1024:64:4:l # l2 data cache config, i.e., {<config>|none}
-cache:dl2lat               6 # l2 data cache hit latency (in cycles)
-cache:il1       il1:512:32:1:l # l1 inst cache config, i.e., {<config>|dl1|dl2|none}
-cache:il1lat               1 # l1 instruction cache hit latency (in cycles)
-cache:il2                dl2 # l2 instruction cache config, i.e., {<config>|dl2|none}
-cache:il2lat               6 # l2 instruction cache hit latency (in cycles)
-cache:flush            false # flush caches on system calls
-cache:icompress        false # convert 64-bit inst addresses to 32-bit inst equivalents
-mem:lat         18 2 # memory access latency (<first_chunk> <inter_chunk>)
-mem:width                  8 # memory access bus width (in bytes)
-tlb:itlb        itlb:16:4096:4:l # instruction TLB config, i.e., {<config>|none}
-tlb:dtlb        dtlb:32:4096:4:l # data TLB config, i.e., {<config>|none}
-tlb:lat                   30 # inst/data TLB miss latency (in cycles)
-res:ialu                   4 # total number of integer ALU's available
-res:imult                  1 # total number of integer multiplier/dividers available
-res:memport                2 # total number of memory system ports available (to CPU)
-res:fpalu                  4 # total number of floating point ALU's available
-res:fpmult                 1 # total number of floating point multiplier/dividers available
# -pcstat              <null> # profile stat(s) against text addr's (mult uses ok)
-bugcompat              false # operate in backward-compatible bugs mode (for testing only)

  Pipetrace range arguments are formatted as follows:

    {{@|#}<start>}:{{@|#|+}<end>}

  Both ends of the range are optional, if neither are specified, the entire
  execution is traced.  Ranges that start with a `@' designate an address
  range to be traced, those that start with an `#' designate a cycle count
  range.  All other range values represent an instruction count range.  The
  second argument, if specified with a `+', indicates a value relative
  to the first argument, e.g., 1000:+100 == 1000:1100.  Program symbols may
  be used in all contexts.

    Examples:   -ptrace FOO.trc #0:#1000
                -ptrace BAR.trc @2000:
                -ptrace BLAH.trc :1500
                -ptrace UXXE.trc :
                -ptrace FOOBAR.trc @main:+278

  Branch predictor configuration examples for 2-level predictor:
    Configurations:   N, M, W, X
      N   # entries in first level (# of shift register(s))
      W   width of shift register(s)
      M   # entries in 2nd level (# of counters, or other FSM)
      X   (yes-1/no-0) xor history and address for 2nd level index
    Sample predictors:
      GAg     : 1, W, 2^W, 0
      GAp     : 1, W, M (M > 2^W), 0
      PAg     : N, W, 2^W, 0
      PAp     : N, W, M (M == 2^(N+W)), 0
      gshare  : 1, W, 2^W, 1
  Predictor `comb' combines a bimodal and a 2-level predictor.

  The cache config parameter <config> has the following format:

    <name>:<nsets>:<bsize>:<assoc>:<repl>

    <name>   - name of the cache being defined
    <nsets>  - number of sets in the cache
    <bsize>  - block size of the cache
    <assoc>  - associativity of the cache
    <repl>   - block replacement strategy, 'l'-LRU, 'f'-FIFO, 'r'-random

    Examples:   -cache:dl1 dl1:4096:32:1:l
                -dtlb dtlb:128:4096:32:r

  Cache levels can be unified by pointing a level of the instruction cache
  hierarchy at the data cache hiearchy using the "dl1" and "dl2" cache
  configuration arguments.  Most sensible combinations are supported, e.g.,

    A unified l2 cache (il2 is pointed at dl2):
      -cache:il1 il1:128:64:1:l -cache:il2 dl2
      -cache:dl1 dl1:256:32:1:l -cache:dl2 ul2:1024:64:2:l

    Or, a fully unified cache hierarchy (il1 pointed at dl1):
      -cache:il1 dl1
      -cache:dl1 ul1:256:32:1:l -cache:dl2 ul2:1024:64:2:l



sim: ** starting performance simulation **

sim: ** simulation statistics **
sim_num_insn              842550792 # total number of instructions committed
sim_num_refs              255032800 # total number of loads and stores committed
sim_num_loads             171016145 # total number of loads committed
sim_num_stores         84016655.0000 # total number of stores committed
sim_num_branches          120522975 # total number of branches committed
sim_elapsed_time               2733 # total simulation time in seconds
sim_inst_rate           308287.8858 # simulation speed (in insts/sec)
sim_total_insn            852162494 # total number of instructions executed
sim_total_refs            259786488 # total number of loads and stores executed
sim_total_loads           175685126 # total number of loads executed
sim_total_stores       84101362.0000 # total number of stores executed
sim_total_branches        121502922 # total number of branches executed
sim_cycle                 662317898 # total simulation time in cycles
sim_IPC                      1.2721 # instructions per cycle
sim_CPI                      0.7861 # cycles per instruction
sim_exec_BW                  1.2866 # total instructions (mis-spec + committed) per cycle
sim_IPB                      6.9908 # instruction per branch
IFQ_count                2108909334 # cumulative IFQ occupancy
IFQ_fcount                490424183 # cumulative IFQ full count
ifq_occupancy                3.1841 # avg IFQ occupancy (insn's)
ifq_rate                     1.2866 # avg IFQ dispatch rate (insn/cycle)
ifq_latency                  2.4748 # avg IFQ occupant latency (cycle's)
ifq_full                     0.7405 # fraction of time (cycle's) IFQ was full
RUU_count                4597379562 # cumulative RUU occupancy
RUU_fcount                513133142 # cumulative RUU full count
ruu_occupancy                6.9413 # avg RUU occupancy (insn's)
ruu_rate                     1.2866 # avg RUU dispatch rate (insn/cycle)
ruu_latency                  5.3950 # avg RUU occupant latency (cycle's)
ruu_full                     0.7748 # fraction of time (cycle's) RUU was full
LSQ_count                1464135091 # cumulative LSQ occupancy
LSQ_fcount                  7721084 # cumulative LSQ full count
lsq_occupancy                2.2106 # avg LSQ occupancy (insn's)
lsq_rate                     1.2866 # avg LSQ dispatch rate (insn/cycle)
lsq_latency                  1.7181 # avg LSQ occupant latency (cycle's)
lsq_full                     0.0117 # fraction of time (cycle's) LSQ was full
sim_slip                 7115670557 # total number of slip cycles
avg_sim_slip                 8.4454 # the average slip between issue and retirement
bpred_bimod.lookups       121979000 # total number of bpred lookups
bpred_bimod.updates       120522975 # total number of updates
bpred_bimod.addr_hits     118677061 # total number of address-predicted hits
bpred_bimod.dir_hits      118682813 # total number of direction-predicted hits (includes addr-hits)
bpred_bimod.misses          1840162 # total number of misses
bpred_bimod.jr_hits        28424008 # total number of address-predicted hits for JR's
bpred_bimod.jr_seen        28430346 # total number of JR's seen
bpred_bimod.jr_non_ras_hits.PP           39 # total number of address-predicted hits for non-RAS JR's
bpred_bimod.jr_non_ras_seen.PP         1276 # total number of non-RAS JR's seen
bpred_bimod.bpred_addr_rate    0.9847 # branch address-prediction rate (i.e., addr-hits/updates)
bpred_bimod.bpred_dir_rate    0.9847 # branch direction-prediction rate (i.e., all-hits/updates)
bpred_bimod.bpred_jr_rate    0.9998 # JR address-prediction rate (i.e., JR addr-hits/JRs seen)
bpred_bimod.bpred_jr_non_ras_rate.PP    0.0306 # non-RAS JR addr-pred rate (ie, non-RAS JR hits/JRs seen)
bpred_bimod.retstack_pushes     28868994 # total number of address pushed onto ret-addr stack
bpred_bimod.retstack_pops     28591667 # total number of address popped off of ret-addr stack
bpred_bimod.used_ras.PP     28429070 # total number of RAS predictions used
bpred_bimod.ras_hits.PP     28423969 # total number of RAS hits
bpred_bimod.ras_rate.PP    0.9998 # RAS prediction rate (i.e., RAS hits/used RAS)
il1.accesses              877452159 # total number of accesses
il1.hits                  859206958 # total number of hits
il1.misses                 18245201 # total number of misses
il1.replacements           18244689 # total number of replacements
il1.writebacks                    0 # total number of writebacks
il1.invalidations                 0 # total number of invalidations
il1.miss_rate                0.0208 # miss rate (i.e., misses/ref)
il1.repl_rate                0.0208 # replacement rate (i.e., repls/ref)
il1.wb_rate                  0.0000 # writeback rate (i.e., wrbks/ref)
il1.inv_rate                 0.0000 # invalidation rate (i.e., invs/ref)
dl1.accesses              257826387 # total number of accesses
dl1.hits                  257298794 # total number of hits
dl1.misses                   527593 # total number of misses
dl1.replacements             527081 # total number of replacements
dl1.writebacks               324919 # total number of writebacks
dl1.invalidations                 0 # total number of invalidations
dl1.miss_rate                0.0020 # miss rate (i.e., misses/ref)
dl1.repl_rate                0.0020 # replacement rate (i.e., repls/ref)
dl1.wb_rate                  0.0013 # writeback rate (i.e., wrbks/ref)
dl1.inv_rate                 0.0000 # invalidation rate (i.e., invs/ref)
ul2.accesses               19097713 # total number of accesses
ul2.hits                   19035519 # total number of hits
ul2.misses                    62194 # total number of misses
ul2.replacements              58098 # total number of replacements
ul2.writebacks                57070 # total number of writebacks
ul2.invalidations                 0 # total number of invalidations
ul2.miss_rate                0.0033 # miss rate (i.e., misses/ref)
ul2.repl_rate                0.0030 # replacement rate (i.e., repls/ref)
ul2.wb_rate                  0.0030 # writeback rate (i.e., wrbks/ref)
ul2.inv_rate                 0.0000 # invalidation rate (i.e., invs/ref)
itlb.accesses             877452159 # total number of accesses
itlb.hits                 877452128 # total number of hits
itlb.misses                      31 # total number of misses
itlb.replacements                 0 # total number of replacements
itlb.writebacks                   0 # total number of writebacks
itlb.invalidations                0 # total number of invalidations
itlb.miss_rate               0.0000 # miss rate (i.e., misses/ref)
itlb.repl_rate               0.0000 # replacement rate (i.e., repls/ref)
itlb.wb_rate                 0.0000 # writeback rate (i.e., wrbks/ref)
itlb.inv_rate                0.0000 # invalidation rate (i.e., invs/ref)
dtlb.accesses             257833234 # total number of accesses
dtlb.hits                 257831853 # total number of hits
dtlb.misses                    1381 # total number of misses
dtlb.replacements              1253 # total number of replacements
dtlb.writebacks                   0 # total number of writebacks
dtlb.invalidations                0 # total number of invalidations
dtlb.miss_rate               0.0000 # miss rate (i.e., misses/ref)
dtlb.repl_rate               0.0000 # replacement rate (i.e., repls/ref)
dtlb.wb_rate                 0.0000 # writeback rate (i.e., wrbks/ref)
dtlb.inv_rate                0.0000 # invalidation rate (i.e., invs/ref)
rename_power           232827523.8397 # total power usage of rename unit
bpred_power            2995747595.6711 # total power usage of bpred unit
window_power           914020386.4579 # total power usage of instruction window
lsq_power              566463775.4942 # total power usage of load/store queue
regfile_power          2366112209.3960 # total power usage of arch. regfile
icache_power           1640522860.3378 # total power usage of icache
dcache_power           4030142286.6103 # total power usage of dcache
dcache2_power          2787759263.7174 # total power usage of dcache2
alu_power              12545079515.1673 # total power usage of alu
falu_power             9458591621.0176 # total power usage of falu
resultbus_power        1364140656.2478 # total power usage of resultbus
clock_power            16906650403.6904 # total power usage of clock
avg_rename_power             0.3515 # avg power usage of rename unit
avg_bpred_power              4.5231 # avg power usage of bpred unit
avg_window_power             1.3800 # avg power usage of instruction window
avg_lsq_power                0.8553 # avg power usage of lsq
avg_regfile_power            3.5725 # avg power usage of arch. regfile
avg_icache_power             2.4769 # avg power usage of icache
avg_dcache_power             6.0849 # avg power usage of dcache
avg_dcache2_power            4.2091 # avg power usage of dcache2
avg_alu_power               18.9412 # avg power usage of alu
avg_falu_power              14.2810 # avg power usage of falu
avg_resultbus_power          2.0596 # avg power usage of resultbus
avg_clock_power             25.5265 # avg power usage of clock
fetch_stage_power      4636270456.0089 # total power usage of fetch stage
dispatch_stage_power   232827523.8397 # total power usage of dispatch stage
issue_stage_power      22207605883.6950 # total power usage of issue stage
avg_fetch_power              7.0001 # average power of fetch unit per cycle
avg_dispatch_power           0.3515 # average power of dispatch unit per cycle
avg_issue_power             33.5301 # average power of issue unit per cycle
total_power            46349466476.6301 # total power per cycle
avg_total_power_cycle       69.9807 # average total power per cycle
avg_total_power_cycle_nofp_nod2      51.4906 # average total power per cycle
avg_total_power_insn        54.3904 # average total power per insn
avg_total_power_insn_nofp_nod2      40.0195 # average total power per insn
rename_power_cc1       134334761.1342 # total power usage of rename unit_cc1
bpred_power_cc1        425019620.7675 # total power usage of bpred unit_cc1
window_power_cc1       673980216.3897 # total power usage of instruction window_cc1
lsq_power_cc1          80609448.3080 # total power usage of lsq_cc1
regfile_power_cc1      1221445386.4004 # total power usage of arch. regfile_cc1
icache_power_cc1       978458838.2112 # total power usage of icache_cc1
dcache_power_cc1       1087523643.4618 # total power usage of dcache_cc1
dcache2_power_cc1      79011155.0769 # total power usage of dcache2_cc1
alu_power_cc1          3526041515.8602 # total power usage of alu_cc1
resultbus_power_cc1    699274613.4487 # total power usage of resultbus_cc1
clock_power_cc1        5711493019.4951 # total power usage of clock_cc1
avg_rename_power_cc1         0.2028 # avg power usage of rename unit_cc1
avg_bpred_power_cc1          0.6417 # avg power usage of bpred unit_cc1
avg_window_power_cc1         1.0176 # avg power usage of instruction window_cc1
avg_lsq_power_cc1            0.1217 # avg power usage of lsq_cc1
avg_regfile_power_cc1        1.8442 # avg power usage of arch. regfile_cc1
avg_icache_power_cc1         1.4773 # avg power usage of icache_cc1
avg_dcache_power_cc1         1.6420 # avg power usage of dcache_cc1
avg_dcache2_power_cc1        0.1193 # avg power usage of dcache2_cc1
avg_alu_power_cc1            5.3238 # avg power usage of alu_cc1
avg_resultbus_power_cc1       1.0558 # avg power usage of resultbus_cc1
avg_clock_power_cc1          8.6235 # avg power usage of clock_cc1
fetch_stage_power_cc1  1403478458.9787 # total power usage of fetch stage_cc1
dispatch_stage_power_cc1 134334761.1342 # total power usage of dispatch stage_cc1
issue_stage_power_cc1  6146440592.5453 # total power usage of issue stage_cc1
avg_fetch_power_cc1          2.1190 # average power of fetch unit per cycle_cc1
avg_dispatch_power_cc1       0.2028 # average power of dispatch unit per cycle_cc1
avg_issue_power_cc1          9.2802 # average power of issue unit per cycle_cc1
total_power_cycle_cc1  14617192218.5537 # total power per cycle_cc1
avg_total_power_cycle_cc1      22.0698 # average total power per cycle_cc1
avg_total_power_insn_cc1      17.1531 # average total power per insn_cc1
rename_power_cc2       74888188.6549 # total power usage of rename unit_cc2
bpred_power_cc2        272570325.1994 # total power usage of bpred unit_cc2
window_power_cc2       411824945.6794 # total power usage of instruction window_cc2
lsq_power_cc2          57286841.6826 # total power usage of lsq_cc2
regfile_power_cc2      335750043.4305 # total power usage of arch. regfile_cc2
icache_power_cc2       978458838.2112 # total power usage of icache_cc2
dcache_power_cc2       784424698.9340 # total power usage of dcache_cc2
dcache2_power_cc2      40192048.3857 # total power usage of dcache2_cc2
alu_power_cc2          1270829953.1052 # total power usage of alu_cc2
resultbus_power_cc2    343618453.5421 # total power usage of resultbus_cc2
clock_power_cc2        2943912112.6347 # total power usage of clock_cc2
avg_rename_power_cc2         0.1131 # avg power usage of rename unit_cc2
avg_bpred_power_cc2          0.4115 # avg power usage of bpred unit_cc2
avg_window_power_cc2         0.6218 # avg power usage of instruction window_cc2
avg_lsq_power_cc2            0.0865 # avg power usage of instruction lsq_cc2
avg_regfile_power_cc2        0.5069 # avg power usage of arch. regfile_cc2
avg_icache_power_cc2         1.4773 # avg power usage of icache_cc2
avg_dcache_power_cc2         1.1844 # avg power usage of dcache_cc2
avg_dcache2_power_cc2        0.0607 # avg power usage of dcache2_cc2
avg_alu_power_cc2            1.9188 # avg power usage of alu_cc2
avg_resultbus_power_cc2       0.5188 # avg power usage of resultbus_cc2
avg_clock_power_cc2          4.4449 # avg power usage of clock_cc2
fetch_stage_power_cc2  1251029163.4106 # total power usage of fetch stage_cc2
dispatch_stage_power_cc2 74888188.6549 # total power usage of dispatch stage_cc2
issue_stage_power_cc2  2908176941.3290 # total power usage of issue stage_cc2
avg_fetch_power_cc2          1.8889 # average power of fetch unit per cycle_cc2
avg_dispatch_power_cc2       0.1131 # average power of dispatch unit per cycle_cc2
avg_issue_power_cc2          4.3909 # average power of issue unit per cycle_cc2
total_power_cycle_cc2  7513756449.4597 # total power per cycle_cc2
avg_total_power_cycle_cc2      11.3446 # average total power per cycle_cc2
avg_total_power_insn_cc2       8.8173 # average total power per insn_cc2
rename_power_cc3       84737464.9290 # total power usage of rename unit_cc3
bpred_power_cc3        531756502.9005 # total power usage of bpred unit_cc3
window_power_cc3       425453191.8622 # total power usage of instruction window_cc3
lsq_power_cc3          105527618.1891 # total power usage of lsq_cc3
regfile_power_cc3      424873399.3867 # total power usage of arch. regfile_cc3
icache_power_cc3       1044665233.9959 # total power usage of icache_cc3
dcache_power_cc3       1079275862.6405 # total power usage of dcache_cc3
dcache2_power_cc3      311067038.8309 # total power usage of dcache2_cc3
alu_power_cc3          2172733746.4966 # total power usage of alu_cc3
resultbus_power_cc3    385963279.0629 # total power usage of resultbus_cc3
clock_power_cc3        4026004665.5154 # total power usage of clock_cc3
avg_rename_power_cc3         0.1279 # avg power usage of rename unit_cc3
avg_bpred_power_cc3          0.8029 # avg power usage of bpred unit_cc3
avg_window_power_cc3         0.6424 # avg power usage of instruction window_cc3
avg_lsq_power_cc3            0.1593 # avg power usage of instruction lsq_cc3
avg_regfile_power_cc3        0.6415 # avg power usage of arch. regfile_cc3
avg_icache_power_cc3         1.5773 # avg power usage of icache_cc3
avg_dcache_power_cc3         1.6295 # avg power usage of dcache_cc3
avg_dcache2_power_cc3        0.4697 # avg power usage of dcache2_cc3
avg_alu_power_cc3            3.2805 # avg power usage of alu_cc3
avg_resultbus_power_cc3       0.5827 # avg power usage of resultbus_cc3
avg_clock_power_cc3          6.0787 # avg power usage of clock_cc3
fetch_stage_power_cc3  1576421736.8964 # total power usage of fetch stage_cc3
dispatch_stage_power_cc3 84737464.9290 # total power usage of dispatch stage_cc3
issue_stage_power_cc3  4480020737.0823 # total power usage of issue stage_cc3
avg_fetch_power_cc3          2.3802 # average power of fetch unit per cycle_cc3
avg_dispatch_power_cc3       0.1279 # average power of dispatch unit per cycle_cc3
avg_issue_power_cc3          6.7642 # average power of issue unit per cycle_cc3
total_power_cycle_cc3  10592058003.8097 # total power per cycle_cc3
avg_total_power_cycle_cc3      15.9924 # average total power per cycle_cc3
avg_total_power_insn_cc3      12.4296 # average total power per insn_cc3
total_rename_access       852129273 # total number accesses of rename unit
total_bpred_access        120522975 # total number accesses of bpred unit
total_window_access      3266103792 # total number accesses of instruction window
total_lsq_access          257840248 # total number accesses of load/store queue
total_regfile_access     1357668481 # total number accesses of arch. regfile
total_icache_access       877491775 # total number accesses of icache
total_dcache_access       257826387 # total number accesses of dcache
total_dcache2_access       19097713 # total number accesses of dcache2
total_alu_access          816324711 # total number accesses of alu
total_resultbus_access    899723503 # total number accesses of resultbus
avg_rename_access            1.2866 # avg number accesses of rename unit
avg_bpred_access             0.1820 # avg number accesses of bpred unit
avg_window_access            4.9313 # avg number accesses of instruction window
avg_lsq_access               0.3893 # avg number accesses of lsq
avg_regfile_access           2.0499 # avg number accesses of arch. regfile
avg_icache_access            1.3249 # avg number accesses of icache
avg_dcache_access            0.3893 # avg number accesses of dcache
avg_dcache2_access           0.0288 # avg number accesses of dcache2
avg_alu_access               1.2325 # avg number accesses of alu
avg_resultbus_access         1.3584 # avg number accesses of resultbus
max_rename_access                 4 # max number accesses of rename unit
max_bpred_access                  4 # max number accesses of bpred unit
max_window_access                14 # max number accesses of instruction window
max_lsq_access                    6 # max number accesses of load/store queue
max_regfile_access               12 # max number accesses of arch. regfile
max_icache_access                 4 # max number accesses of icache
max_dcache_access                 4 # max number accesses of dcache
max_dcache2_access                4 # max number accesses of dcache2
max_alu_access                    4 # max number accesses of alu
max_resultbus_access              7 # max number accesses of resultbus
max_cycle_power_cc1         51.0589 # maximum cycle power usage of cc1
max_cycle_power_cc2         30.3591 # maximum cycle power usage of cc2
max_cycle_power_cc3         33.4691 # maximum cycle power usage of cc3
sim_invalid_addrs                 2 # total non-speculative bogus addresses seen (debug var)
ld_text_base             0x00400000 # program text (code) segment base
ld_text_size                 124464 # program text (code) size in bytes
ld_data_base             0x10000000 # program initialized data segment base
ld_data_size                  13588 # program init'ed `.data' and uninit'ed `.bss' size in bytes
ld_stack_base            0x7fffc000 # program stack segment base (highest address in stack)
ld_stack_size                 16384 # program initial stack size
ld_prog_entry            0x00400140 # program entry point (initial PC)
ld_environ_base          0x7fff8000 # program environment base address address
ld_target_big_endian              0 # target executable endian-ness, non-zero if big endian
mem.page_count                  962 # total number of pages allocated
mem.page_mem                  3848k # total size of memory pages allocated
mem.ptab_misses                1272 # total first level page table misses
mem.ptab_accesses        5566447592 # total page table accesses
mem.ptab_miss_rate           0.0000 # first level page table miss rate

