sim-outorder: SimpleScalar/PISA Tool Set version 3.0 of August, 2003.
Copyright (c) 1994-2003 by Todd M. Austin, Ph.D. and SimpleScalar, LLC.
All Rights Reserved. This version of SimpleScalar is licensed for academic
non-commercial use.  No portion of this work may be used by any commercial
entity, or for any commercial purpose, without the prior written permission
of SimpleScalar, LLC (info@simplescalar.com).


Processor Parameters:
Issue Width: 4
Window Size: 16
Number of Virtual Registers: 32
Number of Physical Registers: 16
Datapath Width: 64
Total Power Consumption: 78.9806
Branch Predictor Power Consumption: 4.52313  (5.88%)
 branch target buffer power (W): 4.16837
 local predict power (W): 0.0879711
 global predict power (W): 0.0996078
 chooser power (W): 0.0702439
 RAS power (W): 0.0969383
Rename Logic Power Consumption: 0.417965  (0.543%)
 Instruction Decode Power (W): 0.0159915
 RAT decode_power (W): 0.113514
 RAT wordline_power (W): 0.0307815
 RAT bitline_power (W): 0.246771
 DCL Comparators (W): 0.0109075
Instruction Window Power Consumption: 2.20432  (2.86%)
 tagdrive (W): 0.0943488
 tagmatch (W): 0.033695
 Selection Logic (W): 0.0134217
 decode_power (W): 0.0532503
 wordline_power (W): 0.0844643
 bitline_power (W): 1.92514
Load/Store Queue Power Consumption: 0.96318  (1.25%)
 tagdrive (W): 0.457232
 tagmatch (W): 0.100774
 decode_power (W): 0.00799577
 wordline_power (W): 0.0150119
 bitline_power (W): 0.382166
Arch. Register File Power Consumption: 3.57247  (4.64%)
 decode_power (W): 0.113514
 wordline_power (W): 0.0844643
 bitline_power (W): 3.37449
Result Bus Power Consumption: 2.29754  (2.98%)
Total Clock Power: 26.8549  (34.9%)
Int ALU Power: 4.66013  (6.05%)
FP ALU Power: 14.281  (18.6%)
Instruction Cache Power Consumption: 6.64968  (8.64%)
 decode_power (W): 1.55896
 wordline_power (W): 0.0983677
 bitline_power (W): 3.54549
 senseamp_power (W): 0.384
 tagarray_power (W): 1.06287
Itlb_power (W): 0.262305 (0.341%)
Data Cache Power Consumption: 5.18303  (6.73%)
 decode_power (W): 0.651055
 wordline_power (W): 0.196735
 bitline_power (W): 2.71235
 senseamp_power (W): 0.768
 tagarray_power (W): 0.854886
Dtlb_power (W): 0.901877 (1.17%)
Level 2 Cache Power Consumption: 4.2091 (5.47%)
 decode_power (W): 0.41817
 wordline_power (W): 0.0430878
 bitline_power (W): 3.0244
 senseamp_power (W): 0.192
 tagarray_power (W): 0.531433
sim: command line: sim-outorder -redir:sim /home/ubuntu/ece568-single-core-dse/results/mem-il1-2048-sets.out -config /home/ubuntu/ece568-single-core-dse/configs/step1-mem/mem-il1-2048-sets.cfg eeg 

sim: simulation started @ Sat Mar  5 21:50:21 2016, options follow:

sim-outorder: This simulator implements a very detailed out-of-order issue
superscalar processor with a two-level memory system and speculative
execution support.  This simulator is a performance simulator, tracking the
latency of all pipeline operations.

# -config                     # load configuration from a file
# -dumpconfig                 # dump configuration to a file
# -h                    false # print help message    
# -v                    false # verbose operation     
# -d                    false # enable debug message  
# -i                    false # start in Dlite debugger
-seed                       1 # random number generator seed (0 for timer seed)
# -q                    false # initialize and terminate immediately
# -chkpt               <null> # restore EIO trace execution from <fname>
# -redir:sim     /home/ubuntu/ece568-single-core-dse/results/mem-il1-2048-sets.out # redirect simulator output to file (non-interactive only)
# -redir:prog          <null> # redirect simulated program output to file
-nice                       0 # simulator scheduling priority
-max:inst                   0 # maximum number of inst's to execute
-fastfwd                    0 # number of insts skipped before timing starts
# -ptrace              <null> # generate pipetrace, i.e., <fname|stdout|stderr> <range>
-fetch:ifqsize              4 # instruction fetch queue size (in insts)
-fetch:mplat                3 # extra branch mis-prediction latency
-fetch:speed                1 # speed of front-end of machine relative to execution core
-bpred                  bimod # branch predictor type {nottaken|taken|perfect|bimod|2lev|comb}
-bpred:bimod     2048 # bimodal predictor config (<table size>)
-bpred:2lev      1 1024 8 0 # 2-level predictor config (<l1size> <l2size> <hist_size> <xor>)
-bpred:comb      1024 # combining predictor config (<meta_table_size>)
-bpred:ras                  8 # return address stack size (0 for no return stack)
-bpred:btb       512 4 # BTB config (<num_sets> <associativity>)
# -bpred:spec_update       <null> # speculative predictors update in {ID|WB} (default non-spec)
-decode:width               4 # instruction decode B/W (insts/cycle)
-issue:width                4 # instruction issue B/W (insts/cycle)
-issue:inorder          false # run pipeline with in-order issue
-issue:wrongpath         true # issue instructions down wrong execution paths
-commit:width               4 # instruction commit B/W (insts/cycle)
-ruu:size                  16 # register update unit (RUU) size
-lsq:size                   8 # load/store queue (LSQ) size
-cache:dl1       dl1:128:32:4:r # l1 data cache config, i.e., {<config>|none}
-cache:dl1lat               1 # l1 data cache hit latency (in cycles)
-cache:dl2       ul2:1024:64:4:l # l2 data cache config, i.e., {<config>|none}
-cache:dl2lat               6 # l2 data cache hit latency (in cycles)
-cache:il1       il1:2048:32:1:l # l1 inst cache config, i.e., {<config>|dl1|dl2|none}
-cache:il1lat               1 # l1 instruction cache hit latency (in cycles)
-cache:il2                dl2 # l2 instruction cache config, i.e., {<config>|dl2|none}
-cache:il2lat               6 # l2 instruction cache hit latency (in cycles)
-cache:flush            false # flush caches on system calls
-cache:icompress        false # convert 64-bit inst addresses to 32-bit inst equivalents
-mem:lat         18 2 # memory access latency (<first_chunk> <inter_chunk>)
-mem:width                  8 # memory access bus width (in bytes)
-tlb:itlb        itlb:16:4096:4:l # instruction TLB config, i.e., {<config>|none}
-tlb:dtlb        dtlb:32:4096:4:l # data TLB config, i.e., {<config>|none}
-tlb:lat                   30 # inst/data TLB miss latency (in cycles)
-res:ialu                   4 # total number of integer ALU's available
-res:imult                  1 # total number of integer multiplier/dividers available
-res:memport                2 # total number of memory system ports available (to CPU)
-res:fpalu                  4 # total number of floating point ALU's available
-res:fpmult                 1 # total number of floating point multiplier/dividers available
# -pcstat              <null> # profile stat(s) against text addr's (mult uses ok)
-bugcompat              false # operate in backward-compatible bugs mode (for testing only)

  Pipetrace range arguments are formatted as follows:

    {{@|#}<start>}:{{@|#|+}<end>}

  Both ends of the range are optional, if neither are specified, the entire
  execution is traced.  Ranges that start with a `@' designate an address
  range to be traced, those that start with an `#' designate a cycle count
  range.  All other range values represent an instruction count range.  The
  second argument, if specified with a `+', indicates a value relative
  to the first argument, e.g., 1000:+100 == 1000:1100.  Program symbols may
  be used in all contexts.

    Examples:   -ptrace FOO.trc #0:#1000
                -ptrace BAR.trc @2000:
                -ptrace BLAH.trc :1500
                -ptrace UXXE.trc :
                -ptrace FOOBAR.trc @main:+278

  Branch predictor configuration examples for 2-level predictor:
    Configurations:   N, M, W, X
      N   # entries in first level (# of shift register(s))
      W   width of shift register(s)
      M   # entries in 2nd level (# of counters, or other FSM)
      X   (yes-1/no-0) xor history and address for 2nd level index
    Sample predictors:
      GAg     : 1, W, 2^W, 0
      GAp     : 1, W, M (M > 2^W), 0
      PAg     : N, W, 2^W, 0
      PAp     : N, W, M (M == 2^(N+W)), 0
      gshare  : 1, W, 2^W, 1
  Predictor `comb' combines a bimodal and a 2-level predictor.

  The cache config parameter <config> has the following format:

    <name>:<nsets>:<bsize>:<assoc>:<repl>

    <name>   - name of the cache being defined
    <nsets>  - number of sets in the cache
    <bsize>  - block size of the cache
    <assoc>  - associativity of the cache
    <repl>   - block replacement strategy, 'l'-LRU, 'f'-FIFO, 'r'-random

    Examples:   -cache:dl1 dl1:4096:32:1:l
                -dtlb dtlb:128:4096:32:r

  Cache levels can be unified by pointing a level of the instruction cache
  hierarchy at the data cache hiearchy using the "dl1" and "dl2" cache
  configuration arguments.  Most sensible combinations are supported, e.g.,

    A unified l2 cache (il2 is pointed at dl2):
      -cache:il1 il1:128:64:1:l -cache:il2 dl2
      -cache:dl1 dl1:256:32:1:l -cache:dl2 ul2:1024:64:2:l

    Or, a fully unified cache hierarchy (il1 pointed at dl1):
      -cache:il1 dl1
      -cache:dl1 ul1:256:32:1:l -cache:dl2 ul2:1024:64:2:l



sim: ** starting performance simulation **

sim: ** simulation statistics **
sim_num_insn              842550792 # total number of instructions committed
sim_num_refs              255032800 # total number of loads and stores committed
sim_num_loads             171016145 # total number of loads committed
sim_num_stores         84016655.0000 # total number of stores committed
sim_num_branches          120522975 # total number of branches committed
sim_elapsed_time               1509 # total simulation time in seconds
sim_inst_rate           558350.4254 # simulation speed (in insts/sec)
sim_total_insn            860901066 # total number of instructions executed
sim_total_refs            263606590 # total number of loads and stores executed
sim_total_loads           179398114 # total number of loads executed
sim_total_stores       84208476.0000 # total number of stores executed
sim_total_branches        121813192 # total number of branches executed
sim_cycle                 481605042 # total simulation time in cycles
sim_IPC                      1.7495 # instructions per cycle
sim_CPI                      0.5716 # cycles per instruction
sim_exec_BW                  1.7876 # total instructions (mis-spec + committed) per cycle
sim_IPB                      6.9908 # instruction per branch
IFQ_count                1739601602 # cumulative IFQ occupancy
IFQ_fcount                386788217 # cumulative IFQ full count
ifq_occupancy                3.6121 # avg IFQ occupancy (insn's)
ifq_rate                     1.7876 # avg IFQ dispatch rate (insn/cycle)
ifq_latency                  2.0207 # avg IFQ occupant latency (cycle's)
ifq_full                     0.8031 # fraction of time (cycle's) IFQ was full
RUU_count                6908207426 # cumulative RUU occupancy
RUU_fcount                261270068 # cumulative RUU full count
ruu_occupancy               14.3441 # avg RUU occupancy (insn's)
ruu_rate                     1.7876 # avg RUU dispatch rate (insn/cycle)
ruu_latency                  8.0244 # avg RUU occupant latency (cycle's)
ruu_full                     0.5425 # fraction of time (cycle's) RUU was full
LSQ_count                2293004835 # cumulative LSQ occupancy
LSQ_fcount                139834243 # cumulative LSQ full count
lsq_occupancy                4.7612 # avg LSQ occupancy (insn's)
lsq_rate                     1.7876 # avg LSQ dispatch rate (insn/cycle)
lsq_latency                  2.6635 # avg LSQ occupant latency (cycle's)
lsq_full                     0.2904 # fraction of time (cycle's) LSQ was full
sim_slip                10183337525 # total number of slip cycles
avg_sim_slip                12.0863 # the average slip between issue and retirement
bpred_bimod.lookups       122437551 # total number of bpred lookups
bpred_bimod.updates       120522975 # total number of updates
bpred_bimod.addr_hits     118500830 # total number of address-predicted hits
bpred_bimod.dir_hits      118682810 # total number of direction-predicted hits (includes addr-hits)
bpred_bimod.misses          1840165 # total number of misses
bpred_bimod.jr_hits        28247780 # total number of address-predicted hits for JR's
bpred_bimod.jr_seen        28430346 # total number of JR's seen
bpred_bimod.jr_non_ras_hits.PP           39 # total number of address-predicted hits for non-RAS JR's
bpred_bimod.jr_non_ras_seen.PP         1276 # total number of non-RAS JR's seen
bpred_bimod.bpred_addr_rate    0.9832 # branch address-prediction rate (i.e., addr-hits/updates)
bpred_bimod.bpred_dir_rate    0.9847 # branch direction-prediction rate (i.e., all-hits/updates)
bpred_bimod.bpred_jr_rate    0.9936 # JR address-prediction rate (i.e., JR addr-hits/JRs seen)
bpred_bimod.bpred_jr_non_ras_rate.PP    0.0306 # non-RAS JR addr-pred rate (ie, non-RAS JR hits/JRs seen)
bpred_bimod.retstack_pushes     29125558 # total number of address pushed onto ret-addr stack
bpred_bimod.retstack_pops     28633138 # total number of address popped off of ret-addr stack
bpred_bimod.used_ras.PP     28429070 # total number of RAS predictions used
bpred_bimod.ras_hits.PP     28247741 # total number of RAS hits
bpred_bimod.ras_rate.PP    0.9936 # RAS prediction rate (i.e., RAS hits/used RAS)
il1.accesses              868909950 # total number of accesses
il1.hits                  868903386 # total number of hits
il1.misses                     6564 # total number of misses
il1.replacements               4918 # total number of replacements
il1.writebacks                    0 # total number of writebacks
il1.invalidations                 0 # total number of invalidations
il1.miss_rate                0.0000 # miss rate (i.e., misses/ref)
il1.repl_rate                0.0000 # replacement rate (i.e., repls/ref)
il1.wb_rate                  0.0000 # writeback rate (i.e., wrbks/ref)
il1.inv_rate                 0.0000 # invalidation rate (i.e., invs/ref)
dl1.accesses              261591179 # total number of accesses
dl1.hits                  260881240 # total number of hits
dl1.misses                   709939 # total number of misses
dl1.replacements             709427 # total number of replacements
dl1.writebacks               440784 # total number of writebacks
dl1.invalidations                 0 # total number of invalidations
dl1.miss_rate                0.0027 # miss rate (i.e., misses/ref)
dl1.repl_rate                0.0027 # replacement rate (i.e., repls/ref)
dl1.wb_rate                  0.0017 # writeback rate (i.e., wrbks/ref)
dl1.inv_rate                 0.0000 # invalidation rate (i.e., invs/ref)
ul2.accesses                1157287 # total number of accesses
ul2.hits                    1095515 # total number of hits
ul2.misses                    61772 # total number of misses
ul2.replacements              57676 # total number of replacements
ul2.writebacks                56525 # total number of writebacks
ul2.invalidations                 0 # total number of invalidations
ul2.miss_rate                0.0534 # miss rate (i.e., misses/ref)
ul2.repl_rate                0.0498 # replacement rate (i.e., repls/ref)
ul2.wb_rate                  0.0488 # writeback rate (i.e., wrbks/ref)
ul2.inv_rate                 0.0000 # invalidation rate (i.e., invs/ref)
itlb.accesses             868909950 # total number of accesses
itlb.hits                 868909919 # total number of hits
itlb.misses                      31 # total number of misses
itlb.replacements                 0 # total number of replacements
itlb.writebacks                   0 # total number of writebacks
itlb.invalidations                0 # total number of invalidations
itlb.miss_rate               0.0000 # miss rate (i.e., misses/ref)
itlb.repl_rate               0.0000 # replacement rate (i.e., repls/ref)
itlb.wb_rate                 0.0000 # writeback rate (i.e., wrbks/ref)
itlb.inv_rate                0.0000 # invalidation rate (i.e., invs/ref)
dtlb.accesses             261613706 # total number of accesses
dtlb.hits                 261612323 # total number of hits
dtlb.misses                    1383 # total number of misses
dtlb.replacements              1255 # total number of replacements
dtlb.writebacks                   0 # total number of writebacks
dtlb.invalidations                0 # total number of invalidations
dtlb.miss_rate               0.0000 # miss rate (i.e., misses/ref)
dtlb.repl_rate               0.0000 # replacement rate (i.e., repls/ref)
dtlb.wb_rate                 0.0000 # writeback rate (i.e., wrbks/ref)
dtlb.inv_rate                0.0000 # invalidation rate (i.e., invs/ref)
rename_power           201294288.1429 # total power usage of rename unit
bpred_power            2178360469.3429 # total power usage of bpred unit
window_power           1061611359.8355 # total power usage of instruction window
lsq_power              463872340.6736 # total power usage of load/store queue
regfile_power          1720520574.0398 # total power usage of arch. regfile
icache_power           3328848684.1512 # total power usage of icache
dcache_power           2930521526.5658 # total power usage of dcache
dcache2_power          2027121598.7009 # total power usage of dcache2
alu_power              9122165601.6463 # total power usage of alu
falu_power             6877823257.6357 # total power usage of falu
resultbus_power        1106508246.1550 # total power usage of resultbus
clock_power            12933444163.0359 # total power usage of clock
avg_rename_power             0.4180 # avg power usage of rename unit
avg_bpred_power              4.5231 # avg power usage of bpred unit
avg_window_power             2.2043 # avg power usage of instruction window
avg_lsq_power                0.9632 # avg power usage of lsq
avg_regfile_power            3.5725 # avg power usage of arch. regfile
avg_icache_power             6.9120 # avg power usage of icache
avg_dcache_power             6.0849 # avg power usage of dcache
avg_dcache2_power            4.2091 # avg power usage of dcache2
avg_alu_power               18.9412 # avg power usage of alu
avg_falu_power              14.2810 # avg power usage of falu
avg_resultbus_power          2.2975 # avg power usage of resultbus
avg_clock_power             26.8549 # avg power usage of clock
fetch_stage_power      5507209153.4941 # total power usage of fetch stage
dispatch_stage_power   201294288.1429 # total power usage of dispatch stage
issue_stage_power      16711800673.5771 # total power usage of issue stage
avg_fetch_power             11.4351 # average power of fetch unit per cycle
avg_dispatch_power           0.4180 # average power of dispatch unit per cycle
avg_issue_power             34.7002 # average power of issue unit per cycle
total_power            37074268852.2898 # total power per cycle
avg_total_power_cycle       76.9806 # average total power per cycle
avg_total_power_cycle_nofp_nod2      58.4905 # average total power per cycle
avg_total_power_insn        43.0645 # average total power per insn
avg_total_power_insn_nofp_nod2      32.7207 # average total power per insn
rename_power_cc1       126625717.8984 # total power usage of rename unit_cc1
bpred_power_cc1        435225913.0479 # total power usage of bpred unit_cc1
window_power_cc1       857241805.5216 # total power usage of instruction window_cc1
lsq_power_cc1          79491238.7053 # total power usage of lsq_cc1
regfile_power_cc1      938857176.7998 # total power usage of arch. regfile_cc1
icache_power_cc1       2149951525.2647 # total power usage of icache_cc1
dcache_power_cc1       999238642.4889 # total power usage of dcache_cc1
dcache2_power_cc1      2990899.0409 # total power usage of dcache2_cc1
alu_power_cc1          3182655908.9336 # total power usage of alu_cc1
resultbus_power_cc1    646917821.3002 # total power usage of resultbus_cc1
clock_power_cc1        5588266442.9144 # total power usage of clock_cc1
avg_rename_power_cc1         0.2629 # avg power usage of rename unit_cc1
avg_bpred_power_cc1          0.9037 # avg power usage of bpred unit_cc1
avg_window_power_cc1         1.7800 # avg power usage of instruction window_cc1
avg_lsq_power_cc1            0.1651 # avg power usage of lsq_cc1
avg_regfile_power_cc1        1.9494 # avg power usage of arch. regfile_cc1
avg_icache_power_cc1         4.4641 # avg power usage of icache_cc1
avg_dcache_power_cc1         2.0748 # avg power usage of dcache_cc1
avg_dcache2_power_cc1        0.0062 # avg power usage of dcache2_cc1
avg_alu_power_cc1            6.6084 # avg power usage of alu_cc1
avg_resultbus_power_cc1       1.3433 # avg power usage of resultbus_cc1
avg_clock_power_cc1         11.6034 # avg power usage of clock_cc1
fetch_stage_power_cc1  2585177438.3126 # total power usage of fetch stage_cc1
dispatch_stage_power_cc1 126625717.8984 # total power usage of dispatch stage_cc1
issue_stage_power_cc1  5768536315.9906 # total power usage of issue stage_cc1
avg_fetch_power_cc1          5.3678 # average power of fetch unit per cycle_cc1
avg_dispatch_power_cc1       0.2629 # average power of dispatch unit per cycle_cc1
avg_issue_power_cc1         11.9777 # average power of issue unit per cycle_cc1
total_power_cycle_cc1  15007463091.9159 # total power per cycle_cc1
avg_total_power_cycle_cc1      31.1613 # average total power per cycle_cc1
avg_total_power_insn_cc1      17.4323 # average total power per insn_cc1
rename_power_cc2       89951839.2370 # total power usage of rename unit_cc2
bpred_power_cc2        272570325.2430 # total power usage of bpred unit_cc2
window_power_cc2       639861480.4475 # total power usage of instruction window_cc2
lsq_power_cc2          61422384.6202 # total power usage of lsq_cc2
regfile_power_cc2      307915578.8798 # total power usage of arch. regfile_cc2
icache_power_cc2       2149951525.2647 # total power usage of icache_cc2
dcache_power_cc2       795878901.8343 # total power usage of dcache_cc2
dcache2_power_cc2      2435565.7198 # total power usage of dcache2_cc2
alu_power_cc2          1277714473.6274 # total power usage of alu_cc2
resultbus_power_cc2    382122059.3896 # total power usage of resultbus_cc2
clock_power_cc2        3547284082.1310 # total power usage of clock_cc2
avg_rename_power_cc2         0.1868 # avg power usage of rename unit_cc2
avg_bpred_power_cc2          0.5660 # avg power usage of bpred unit_cc2
avg_window_power_cc2         1.3286 # avg power usage of instruction window_cc2
avg_lsq_power_cc2            0.1275 # avg power usage of instruction lsq_cc2
avg_regfile_power_cc2        0.6394 # avg power usage of arch. regfile_cc2
avg_icache_power_cc2         4.4641 # avg power usage of icache_cc2
avg_dcache_power_cc2         1.6526 # avg power usage of dcache_cc2
avg_dcache2_power_cc2        0.0051 # avg power usage of dcache2_cc2
avg_alu_power_cc2            2.6530 # avg power usage of alu_cc2
avg_resultbus_power_cc2       0.7934 # avg power usage of resultbus_cc2
avg_clock_power_cc2          7.3655 # avg power usage of clock_cc2
fetch_stage_power_cc2  2422521850.5077 # total power usage of fetch stage_cc2
dispatch_stage_power_cc2 89951839.2370 # total power usage of dispatch stage_cc2
issue_stage_power_cc2  3159434865.6388 # total power usage of issue stage_cc2
avg_fetch_power_cc2          5.0301 # average power of fetch unit per cycle_cc2
avg_dispatch_power_cc2       0.1868 # average power of dispatch unit per cycle_cc2
avg_issue_power_cc2          6.5602 # average power of issue unit per cycle_cc2
total_power_cycle_cc2  9527108216.3943 # total power per cycle_cc2
avg_total_power_cycle_cc2      19.7820 # average total power per cycle_cc2
avg_total_power_insn_cc2      11.0664 # average total power per insn_cc2
rename_power_cc3       97418696.2458 # total power usage of rename unit_cc3
bpred_power_cc3        449346805.9640 # total power usage of bpred unit_cc3
window_power_cc3       652405077.4329 # total power usage of instruction window_cc3
lsq_power_cc3          99287462.8260 # total power usage of lsq_cc3
regfile_power_cc3      366200693.1515 # total power usage of arch. regfile_cc3
icache_power_cc3       2267841237.0989 # total power usage of icache_cc3
dcache_power_cc3       990110556.7258 # total power usage of dcache_cc3
dcache2_power_cc3      204853164.3749 # total power usage of dcache2_cc3
alu_power_cc3          1871665438.9670 # total power usage of alu_cc3
resultbus_power_cc3    405565216.0493 # total power usage of resultbus_cc3
clock_power_cc3        4253070466.0481 # total power usage of clock_cc3
avg_rename_power_cc3         0.2023 # avg power usage of rename unit_cc3
avg_bpred_power_cc3          0.9330 # avg power usage of bpred unit_cc3
avg_window_power_cc3         1.3546 # avg power usage of instruction window_cc3
avg_lsq_power_cc3            0.2062 # avg power usage of instruction lsq_cc3
avg_regfile_power_cc3        0.7604 # avg power usage of arch. regfile_cc3
avg_icache_power_cc3         4.7089 # avg power usage of icache_cc3
avg_dcache_power_cc3         2.0559 # avg power usage of dcache_cc3
avg_dcache2_power_cc3        0.4254 # avg power usage of dcache2_cc3
avg_alu_power_cc3            3.8863 # avg power usage of alu_cc3
avg_resultbus_power_cc3       0.8421 # avg power usage of resultbus_cc3
avg_clock_power_cc3          8.8310 # avg power usage of clock_cc3
fetch_stage_power_cc3  2717188043.0630 # total power usage of fetch stage_cc3
dispatch_stage_power_cc3 97418696.2458 # total power usage of dispatch stage_cc3
issue_stage_power_cc3  4223886916.3760 # total power usage of issue stage_cc3
avg_fetch_power_cc3          5.6419 # average power of fetch unit per cycle_cc3
avg_dispatch_power_cc3       0.2023 # average power of dispatch unit per cycle_cc3
avg_issue_power_cc3          8.7704 # average power of issue unit per cycle_cc3
total_power_cycle_cc3  11657764814.8843 # total power per cycle_cc3
avg_total_power_cycle_cc3      24.2061 # average total power per cycle_cc3
avg_total_power_insn_cc3      13.5414 # average total power per insn_cc3
total_rename_access       860854227 # total number accesses of rename unit
total_bpred_access        120522975 # total number accesses of bpred unit
total_window_access      3185923843 # total number accesses of instruction window
total_lsq_access          261638721 # total number accesses of load/store queue
total_regfile_access     1252025255 # total number accesses of arch. regfile
total_icache_access       868961275 # total number accesses of icache
total_dcache_access       261591179 # total number accesses of dcache
total_dcache2_access        1157287 # total number accesses of dcache2
total_alu_access          821299424 # total number accesses of alu
total_resultbus_access    906920712 # total number accesses of resultbus
avg_rename_access            1.7875 # avg number accesses of rename unit
avg_bpred_access             0.2503 # avg number accesses of bpred unit
avg_window_access            6.6152 # avg number accesses of instruction window
avg_lsq_access               0.5433 # avg number accesses of lsq
avg_regfile_access           2.5997 # avg number accesses of arch. regfile
avg_icache_access            1.8043 # avg number accesses of icache
avg_dcache_access            0.5432 # avg number accesses of dcache
avg_dcache2_access           0.0024 # avg number accesses of dcache2
avg_alu_access               1.7053 # avg number accesses of alu
avg_resultbus_access         1.8831 # avg number accesses of resultbus
max_rename_access                 4 # max number accesses of rename unit
max_bpred_access                  4 # max number accesses of bpred unit
max_window_access                17 # max number accesses of instruction window
max_lsq_access                    6 # max number accesses of load/store queue
max_regfile_access               12 # max number accesses of arch. regfile
max_icache_access                 4 # max number accesses of icache
max_dcache_access                 4 # max number accesses of dcache
max_dcache2_access                6 # max number accesses of dcache2
max_alu_access                    4 # max number accesses of alu
max_resultbus_access              9 # max number accesses of resultbus
max_cycle_power_cc1         65.3114 # maximum cycle power usage of cc1
max_cycle_power_cc2         41.7079 # maximum cycle power usage of cc2
max_cycle_power_cc3         42.9643 # maximum cycle power usage of cc3
sim_invalid_addrs                 0 # total non-speculative bogus addresses seen (debug var)
ld_text_base             0x00400000 # program text (code) segment base
ld_text_size                 124464 # program text (code) size in bytes
ld_data_base             0x10000000 # program initialized data segment base
ld_data_size                  13588 # program init'ed `.data' and uninit'ed `.bss' size in bytes
ld_stack_base            0x7fffc000 # program stack segment base (highest address in stack)
ld_stack_size                 16384 # program initial stack size
ld_prog_entry            0x00400140 # program entry point (initial PC)
ld_environ_base          0x7fff8000 # program environment base address address
ld_target_big_endian              0 # target executable endian-ness, non-zero if big endian
mem.page_count                  962 # total number of pages allocated
mem.page_mem                  3848k # total size of memory pages allocated
mem.ptab_misses                1276 # total first level page table misses
mem.ptab_accesses        5539845270 # total page table accesses
mem.ptab_miss_rate           0.0000 # first level page table miss rate

