sim-outorder: SimpleScalar/PISA Tool Set version 3.0 of August, 2003.
Copyright (c) 1994-2003 by Todd M. Austin, Ph.D. and SimpleScalar, LLC.
All Rights Reserved. This version of SimpleScalar is licensed for academic
non-commercial use.  No portion of this work may be used by any commercial
entity, or for any commercial purpose, without the prior written permission
of SimpleScalar, LLC (info@simplescalar.com).


Processor Parameters:
Issue Width: 4
Window Size: 16
Number of Virtual Registers: 32
Number of Physical Registers: 16
Datapath Width: 64
Total Power Consumption: 71.2187
Branch Predictor Power Consumption: 4.52313  (6.53%)
 branch target buffer power (W): 4.16837
 local predict power (W): 0.0879711
 global predict power (W): 0.0996078
 chooser power (W): 0.0702439
 RAS power (W): 0.0969383
Rename Logic Power Consumption: 0.417965  (0.604%)
 Instruction Decode Power (W): 0.0159915
 RAT decode_power (W): 0.113514
 RAT wordline_power (W): 0.0307815
 RAT bitline_power (W): 0.246771
 DCL Comparators (W): 0.0109075
Instruction Window Power Consumption: 2.20432  (3.18%)
 tagdrive (W): 0.0943488
 tagmatch (W): 0.033695
 Selection Logic (W): 0.0134217
 decode_power (W): 0.0532503
 wordline_power (W): 0.0844643
 bitline_power (W): 1.92514
Load/Store Queue Power Consumption: 0.96318  (1.39%)
 tagdrive (W): 0.457232
 tagmatch (W): 0.100774
 decode_power (W): 0.00799577
 wordline_power (W): 0.0150119
 bitline_power (W): 0.382166
Arch. Register File Power Consumption: 3.57247  (5.16%)
 decode_power (W): 0.113514
 wordline_power (W): 0.0844643
 bitline_power (W): 3.37449
Result Bus Power Consumption: 2.29754  (3.32%)
Total Clock Power: 25.7684  (37.2%)
Int ALU Power: 4.66013  (6.73%)
FP ALU Power: 14.281  (20.6%)
Instruction Cache Power Consumption: 2.21363  (3.2%)
 decode_power (W): 0.779481
 wordline_power (W): 0.028656
 bitline_power (W): 0.886372
 senseamp_power (W): 0.096
 tagarray_power (W): 0.423116
Itlb_power (W): 0.263317 (0.38%)
Data Cache Power Consumption: 2.94125  (4.25%)
 decode_power (W): 0.651055
 wordline_power (W): 0.114624
 bitline_power (W): 1.35618
 senseamp_power (W): 0.384
 tagarray_power (W): 0.435396
Dtlb_power (W): 0.903238 (1.3%)
Level 2 Cache Power Consumption: 4.2091 (6.08%)
 decode_power (W): 0.41817
 wordline_power (W): 0.0430878
 bitline_power (W): 3.0244
 senseamp_power (W): 0.192
 tagarray_power (W): 0.531433
sim: command line: sim-outorder -redir:sim /home/ubuntu/ece568-single-core-dse/results/mem-64-sets.out -config /home/ubuntu/ece568-single-core-dse/configs/step1-mem/mem-64-sets.cfg eeg 

sim: simulation started @ Sat Mar  5 20:11:55 2016, options follow:

sim-outorder: This simulator implements a very detailed out-of-order issue
superscalar processor with a two-level memory system and speculative
execution support.  This simulator is a performance simulator, tracking the
latency of all pipeline operations.

# -config                     # load configuration from a file
# -dumpconfig                 # dump configuration to a file
# -h                    false # print help message    
# -v                    false # verbose operation     
# -d                    false # enable debug message  
# -i                    false # start in Dlite debugger
-seed                       1 # random number generator seed (0 for timer seed)
# -q                    false # initialize and terminate immediately
# -chkpt               <null> # restore EIO trace execution from <fname>
# -redir:sim     /home/ubuntu/ece568-single-core-dse/results/mem-64-sets.out # redirect simulator output to file (non-interactive only)
# -redir:prog          <null> # redirect simulated program output to file
-nice                       0 # simulator scheduling priority
-max:inst                   0 # maximum number of inst's to execute
-fastfwd                    0 # number of insts skipped before timing starts
# -ptrace              <null> # generate pipetrace, i.e., <fname|stdout|stderr> <range>
-fetch:ifqsize              4 # instruction fetch queue size (in insts)
-fetch:mplat                3 # extra branch mis-prediction latency
-fetch:speed                1 # speed of front-end of machine relative to execution core
-bpred                  bimod # branch predictor type {nottaken|taken|perfect|bimod|2lev|comb}
-bpred:bimod     2048 # bimodal predictor config (<table size>)
-bpred:2lev      1 1024 8 0 # 2-level predictor config (<l1size> <l2size> <hist_size> <xor>)
-bpred:comb      1024 # combining predictor config (<meta_table_size>)
-bpred:ras                  8 # return address stack size (0 for no return stack)
-bpred:btb       512 4 # BTB config (<num_sets> <associativity>)
# -bpred:spec_update       <null> # speculative predictors update in {ID|WB} (default non-spec)
-decode:width               4 # instruction decode B/W (insts/cycle)
-issue:width                4 # instruction issue B/W (insts/cycle)
-issue:inorder          false # run pipeline with in-order issue
-issue:wrongpath         true # issue instructions down wrong execution paths
-commit:width               4 # instruction commit B/W (insts/cycle)
-ruu:size                  16 # register update unit (RUU) size
-lsq:size                   8 # load/store queue (LSQ) size
-cache:dl1       dl1:64:32:4:l # l1 data cache config, i.e., {<config>|none}
-cache:dl1lat               1 # l1 data cache hit latency (in cycles)
-cache:dl2       ul2:1024:64:4:l # l2 data cache config, i.e., {<config>|none}
-cache:dl2lat               6 # l2 data cache hit latency (in cycles)
-cache:il1       il1:512:32:1:l # l1 inst cache config, i.e., {<config>|dl1|dl2|none}
-cache:il1lat               1 # l1 instruction cache hit latency (in cycles)
-cache:il2                dl2 # l2 instruction cache config, i.e., {<config>|dl2|none}
-cache:il2lat               6 # l2 instruction cache hit latency (in cycles)
-cache:flush            false # flush caches on system calls
-cache:icompress        false # convert 64-bit inst addresses to 32-bit inst equivalents
-mem:lat         18 2 # memory access latency (<first_chunk> <inter_chunk>)
-mem:width                  8 # memory access bus width (in bytes)
-tlb:itlb        itlb:16:4096:4:l # instruction TLB config, i.e., {<config>|none}
-tlb:dtlb        dtlb:32:4096:4:l # data TLB config, i.e., {<config>|none}
-tlb:lat                   30 # inst/data TLB miss latency (in cycles)
-res:ialu                   4 # total number of integer ALU's available
-res:imult                  1 # total number of integer multiplier/dividers available
-res:memport                2 # total number of memory system ports available (to CPU)
-res:fpalu                  4 # total number of floating point ALU's available
-res:fpmult                 1 # total number of floating point multiplier/dividers available
# -pcstat              <null> # profile stat(s) against text addr's (mult uses ok)
-bugcompat              false # operate in backward-compatible bugs mode (for testing only)

  Pipetrace range arguments are formatted as follows:

    {{@|#}<start>}:{{@|#|+}<end>}

  Both ends of the range are optional, if neither are specified, the entire
  execution is traced.  Ranges that start with a `@' designate an address
  range to be traced, those that start with an `#' designate a cycle count
  range.  All other range values represent an instruction count range.  The
  second argument, if specified with a `+', indicates a value relative
  to the first argument, e.g., 1000:+100 == 1000:1100.  Program symbols may
  be used in all contexts.

    Examples:   -ptrace FOO.trc #0:#1000
                -ptrace BAR.trc @2000:
                -ptrace BLAH.trc :1500
                -ptrace UXXE.trc :
                -ptrace FOOBAR.trc @main:+278

  Branch predictor configuration examples for 2-level predictor:
    Configurations:   N, M, W, X
      N   # entries in first level (# of shift register(s))
      W   width of shift register(s)
      M   # entries in 2nd level (# of counters, or other FSM)
      X   (yes-1/no-0) xor history and address for 2nd level index
    Sample predictors:
      GAg     : 1, W, 2^W, 0
      GAp     : 1, W, M (M > 2^W), 0
      PAg     : N, W, 2^W, 0
      PAp     : N, W, M (M == 2^(N+W)), 0
      gshare  : 1, W, 2^W, 1
  Predictor `comb' combines a bimodal and a 2-level predictor.

  The cache config parameter <config> has the following format:

    <name>:<nsets>:<bsize>:<assoc>:<repl>

    <name>   - name of the cache being defined
    <nsets>  - number of sets in the cache
    <bsize>  - block size of the cache
    <assoc>  - associativity of the cache
    <repl>   - block replacement strategy, 'l'-LRU, 'f'-FIFO, 'r'-random

    Examples:   -cache:dl1 dl1:4096:32:1:l
                -dtlb dtlb:128:4096:32:r

  Cache levels can be unified by pointing a level of the instruction cache
  hierarchy at the data cache hiearchy using the "dl1" and "dl2" cache
  configuration arguments.  Most sensible combinations are supported, e.g.,

    A unified l2 cache (il2 is pointed at dl2):
      -cache:il1 il1:128:64:1:l -cache:il2 dl2
      -cache:dl1 dl1:256:32:1:l -cache:dl2 ul2:1024:64:2:l

    Or, a fully unified cache hierarchy (il1 pointed at dl1):
      -cache:il1 dl1
      -cache:dl1 ul1:256:32:1:l -cache:dl2 ul2:1024:64:2:l



sim: ** starting performance simulation **

sim: ** simulation statistics **
sim_num_insn              842550792 # total number of instructions committed
sim_num_refs              255032800 # total number of loads and stores committed
sim_num_loads             171016145 # total number of loads committed
sim_num_stores         84016655.0000 # total number of stores committed
sim_num_branches          120522975 # total number of branches committed
sim_elapsed_time               1127 # total simulation time in seconds
sim_inst_rate           747604.9618 # simulation speed (in insts/sec)
sim_total_insn            859730521 # total number of instructions executed
sim_total_refs            263287633 # total number of loads and stores executed
sim_total_loads           179153890 # total number of loads executed
sim_total_stores       84133743.0000 # total number of stores executed
sim_total_branches        121739441 # total number of branches executed
sim_cycle                 554807981 # total simulation time in cycles
sim_IPC                      1.5186 # instructions per cycle
sim_CPI                      0.6585 # cycles per instruction
sim_exec_BW                  1.5496 # total instructions (mis-spec + committed) per cycle
sim_IPB                      6.9908 # instruction per branch
IFQ_count                1626337595 # cumulative IFQ occupancy
IFQ_fcount                350522958 # cumulative IFQ full count
ifq_occupancy                2.9314 # avg IFQ occupancy (insn's)
ifq_rate                     1.5496 # avg IFQ dispatch rate (insn/cycle)
ifq_latency                  1.8917 # avg IFQ occupant latency (cycle's)
ifq_full                     0.6318 # fraction of time (cycle's) IFQ was full
RUU_count                6769211803 # cumulative RUU occupancy
RUU_fcount                235049034 # cumulative RUU full count
ruu_occupancy               12.2010 # avg RUU occupancy (insn's)
ruu_rate                     1.5496 # avg RUU dispatch rate (insn/cycle)
ruu_latency                  7.8736 # avg RUU occupant latency (cycle's)
ruu_full                     0.4237 # fraction of time (cycle's) RUU was full
LSQ_count                2267300525 # cumulative LSQ occupancy
LSQ_fcount                134824965 # cumulative LSQ full count
lsq_occupancy                4.0866 # avg LSQ occupancy (insn's)
lsq_rate                     1.5496 # avg LSQ dispatch rate (insn/cycle)
lsq_latency                  2.6372 # avg LSQ occupant latency (cycle's)
lsq_full                     0.2430 # fraction of time (cycle's) LSQ was full
sim_slip                10021376021 # total number of slip cycles
avg_sim_slip                11.8941 # the average slip between issue and retirement
bpred_bimod.lookups       122332934 # total number of bpred lookups
bpred_bimod.updates       120522975 # total number of updates
bpred_bimod.addr_hits     118676993 # total number of address-predicted hits
bpred_bimod.dir_hits      118682811 # total number of direction-predicted hits (includes addr-hits)
bpred_bimod.misses          1840164 # total number of misses
bpred_bimod.jr_hits        28423943 # total number of address-predicted hits for JR's
bpred_bimod.jr_seen        28430346 # total number of JR's seen
bpred_bimod.jr_non_ras_hits.PP           39 # total number of address-predicted hits for non-RAS JR's
bpred_bimod.jr_non_ras_seen.PP         1276 # total number of non-RAS JR's seen
bpred_bimod.bpred_addr_rate    0.9847 # branch address-prediction rate (i.e., addr-hits/updates)
bpred_bimod.bpred_dir_rate    0.9847 # branch direction-prediction rate (i.e., all-hits/updates)
bpred_bimod.bpred_jr_rate    0.9998 # JR address-prediction rate (i.e., JR addr-hits/JRs seen)
bpred_bimod.bpred_jr_non_ras_rate.PP    0.0306 # non-RAS JR addr-pred rate (ie, non-RAS JR hits/JRs seen)
bpred_bimod.retstack_pushes     29022188 # total number of address pushed onto ret-addr stack
bpred_bimod.retstack_pops     28632247 # total number of address popped off of ret-addr stack
bpred_bimod.used_ras.PP     28429070 # total number of RAS predictions used
bpred_bimod.ras_hits.PP     28423904 # total number of RAS hits
bpred_bimod.ras_rate.PP    0.9998 # RAS prediction rate (i.e., RAS hits/used RAS)
il1.accesses              884689688 # total number of accesses
il1.hits                  866444119 # total number of hits
il1.misses                 18245569 # total number of misses
il1.replacements           18245057 # total number of replacements
il1.writebacks                    0 # total number of writebacks
il1.invalidations                 0 # total number of invalidations
il1.miss_rate                0.0206 # miss rate (i.e., misses/ref)
il1.repl_rate                0.0206 # replacement rate (i.e., repls/ref)
il1.wb_rate                  0.0000 # writeback rate (i.e., wrbks/ref)
il1.inv_rate                 0.0000 # invalidation rate (i.e., invs/ref)
dl1.accesses              261420869 # total number of accesses
dl1.hits                  259143741 # total number of hits
dl1.misses                  2277128 # total number of misses
dl1.replacements            2276872 # total number of replacements
dl1.writebacks              1668629 # total number of writebacks
dl1.invalidations                 0 # total number of invalidations
dl1.miss_rate                0.0087 # miss rate (i.e., misses/ref)
dl1.repl_rate                0.0087 # replacement rate (i.e., repls/ref)
dl1.wb_rate                  0.0064 # writeback rate (i.e., wrbks/ref)
dl1.inv_rate                 0.0000 # invalidation rate (i.e., invs/ref)
ul2.accesses               22191326 # total number of accesses
ul2.hits                   22129135 # total number of hits
ul2.misses                    62191 # total number of misses
ul2.replacements              58095 # total number of replacements
ul2.writebacks                57076 # total number of writebacks
ul2.invalidations                 0 # total number of invalidations
ul2.miss_rate                0.0028 # miss rate (i.e., misses/ref)
ul2.repl_rate                0.0026 # replacement rate (i.e., repls/ref)
ul2.wb_rate                  0.0026 # writeback rate (i.e., wrbks/ref)
ul2.inv_rate                 0.0000 # invalidation rate (i.e., invs/ref)
itlb.accesses             884689688 # total number of accesses
itlb.hits                 884689657 # total number of hits
itlb.misses                      31 # total number of misses
itlb.replacements                 0 # total number of replacements
itlb.writebacks                   0 # total number of writebacks
itlb.invalidations                0 # total number of invalidations
itlb.miss_rate               0.0000 # miss rate (i.e., misses/ref)
itlb.repl_rate               0.0000 # replacement rate (i.e., repls/ref)
itlb.wb_rate                 0.0000 # writeback rate (i.e., wrbks/ref)
itlb.inv_rate                0.0000 # invalidation rate (i.e., invs/ref)
dtlb.accesses             261440669 # total number of accesses
dtlb.hits                 261439288 # total number of hits
dtlb.misses                    1381 # total number of misses
dtlb.replacements              1253 # total number of replacements
dtlb.writebacks                   0 # total number of writebacks
dtlb.invalidations                0 # total number of invalidations
dtlb.miss_rate               0.0000 # miss rate (i.e., misses/ref)
dtlb.repl_rate               0.0000 # replacement rate (i.e., repls/ref)
dtlb.wb_rate                 0.0000 # writeback rate (i.e., wrbks/ref)
dtlb.inv_rate                0.0000 # invalidation rate (i.e., invs/ref)
rename_power           231890591.2567 # total power usage of rename unit
bpred_power            2509466630.0910 # total power usage of bpred unit
window_power           1222974024.0528 # total power usage of instruction window
lsq_power              534379947.8659 # total power usage of load/store queue
regfile_power          1982036030.9251 # total power usage of arch. regfile
icache_power           1374227050.4301 # total power usage of icache
dcache_power           2132953928.8842 # total power usage of dcache
dcache2_power          2335239758.2264 # total power usage of dcache2
alu_power              10508715313.4926 # total power usage of alu
falu_power             7923237720.7005 # total power usage of falu
resultbus_power        1274695132.3575 # total power usage of resultbus
clock_power            14296498151.1843 # total power usage of clock
avg_rename_power             0.4180 # avg power usage of rename unit
avg_bpred_power              4.5231 # avg power usage of bpred unit
avg_window_power             2.2043 # avg power usage of instruction window
avg_lsq_power                0.9632 # avg power usage of lsq
avg_regfile_power            3.5725 # avg power usage of arch. regfile
avg_icache_power             2.4769 # avg power usage of icache
avg_dcache_power             3.8445 # avg power usage of dcache
avg_dcache2_power            4.2091 # avg power usage of dcache2
avg_alu_power               18.9412 # avg power usage of alu
avg_falu_power              14.2810 # avg power usage of falu
avg_resultbus_power          2.2975 # avg power usage of resultbus
avg_clock_power             25.7684 # avg power usage of clock
fetch_stage_power      3883693680.5211 # total power usage of fetch stage
dispatch_stage_power   231890591.2567 # total power usage of dispatch stage
issue_stage_power      18008958104.8795 # total power usage of issue stage
avg_fetch_power              7.0001 # average power of fetch unit per cycle
avg_dispatch_power           0.4180 # average power of dispatch unit per cycle
avg_issue_power             32.4598 # average power of issue unit per cycle
total_power            38403076558.7668 # total power per cycle
avg_total_power_cycle       69.2187 # average total power per cycle
avg_total_power_cycle_nofp_nod2      50.7285 # average total power per cycle
avg_total_power_insn        44.6687 # average total power per insn
avg_total_power_insn_nofp_nod2      32.7365 # average total power per insn
rename_power_cc1       125843628.8212 # total power usage of rename unit_cc1
bpred_power_cc1        443963012.4707 # total power usage of bpred unit_cc1
window_power_cc1       916696095.3110 # total power usage of instruction window_cc1
lsq_power_cc1          77971220.1904 # total power usage of lsq_cc1
regfile_power_cc1      1017325973.8661 # total power usage of arch. regfile_cc1
icache_power_cc1       785872974.6087 # total power usage of icache_cc1
dcache_power_cc1       629935191.0236 # total power usage of dcache_cc1
dcache2_power_cc1      86375912.5056 # total power usage of dcache2_cc1
alu_power_cc1          3205072754.9802 # total power usage of alu_cc1
resultbus_power_cc1    646234278.8758 # total power usage of resultbus_cc1
clock_power_cc1        5237815806.2083 # total power usage of clock_cc1
avg_rename_power_cc1         0.2268 # avg power usage of rename unit_cc1
avg_bpred_power_cc1          0.8002 # avg power usage of bpred unit_cc1
avg_window_power_cc1         1.6523 # avg power usage of instruction window_cc1
avg_lsq_power_cc1            0.1405 # avg power usage of lsq_cc1
avg_regfile_power_cc1        1.8337 # avg power usage of arch. regfile_cc1
avg_icache_power_cc1         1.4165 # avg power usage of icache_cc1
avg_dcache_power_cc1         1.1354 # avg power usage of dcache_cc1
avg_dcache2_power_cc1        0.1557 # avg power usage of dcache2_cc1
avg_alu_power_cc1            5.7769 # avg power usage of alu_cc1
avg_resultbus_power_cc1       1.1648 # avg power usage of resultbus_cc1
avg_clock_power_cc1          9.4408 # avg power usage of clock_cc1
fetch_stage_power_cc1  1229835987.0794 # total power usage of fetch stage_cc1
dispatch_stage_power_cc1 125843628.8212 # total power usage of dispatch stage_cc1
issue_stage_power_cc1  5562285452.8866 # total power usage of issue stage_cc1
avg_fetch_power_cc1          2.2167 # average power of fetch unit per cycle_cc1
avg_dispatch_power_cc1       0.2268 # average power of dispatch unit per cycle_cc1
avg_issue_power_cc1         10.0256 # average power of issue unit per cycle_cc1
total_power_cycle_cc1  13173106848.8615 # total power per cycle_cc1
avg_total_power_cycle_cc1      23.7435 # average total power per cycle_cc1
avg_total_power_insn_cc1      15.3224 # average total power per insn_cc1
rename_power_cc2       89829433.5419 # total power usage of rename unit_cc2
bpred_power_cc2        272570325.2576 # total power usage of bpred unit_cc2
window_power_cc2       640403238.0722 # total power usage of instruction window_cc2
lsq_power_cc2          61373914.9121 # total power usage of lsq_cc2
regfile_power_cc2      308090348.4209 # total power usage of arch. regfile_cc2
icache_power_cc2       785872974.6087 # total power usage of icache_cc2
dcache_power_cc2       502515011.7721 # total power usage of dcache_cc2
dcache2_power_cc2      46702704.5829 # total power usage of dcache2_cc2
alu_power_cc2          1277717071.0364 # total power usage of alu_cc2
resultbus_power_cc2    372371829.6472 # total power usage of resultbus_cc2
clock_power_cc2        2879861654.5720 # total power usage of clock_cc2
avg_rename_power_cc2         0.1619 # avg power usage of rename unit_cc2
avg_bpred_power_cc2          0.4913 # avg power usage of bpred unit_cc2
avg_window_power_cc2         1.1543 # avg power usage of instruction window_cc2
avg_lsq_power_cc2            0.1106 # avg power usage of instruction lsq_cc2
avg_regfile_power_cc2        0.5553 # avg power usage of arch. regfile_cc2
avg_icache_power_cc2         1.4165 # avg power usage of icache_cc2
avg_dcache_power_cc2         0.9057 # avg power usage of dcache_cc2
avg_dcache2_power_cc2        0.0842 # avg power usage of dcache2_cc2
avg_alu_power_cc2            2.3030 # avg power usage of alu_cc2
avg_resultbus_power_cc2       0.6712 # avg power usage of resultbus_cc2
avg_clock_power_cc2          5.1907 # avg power usage of clock_cc2
fetch_stage_power_cc2  1058443299.8663 # total power usage of fetch stage_cc2
dispatch_stage_power_cc2 89829433.5419 # total power usage of dispatch stage_cc2
issue_stage_power_cc2  2901083770.0228 # total power usage of issue stage_cc2
avg_fetch_power_cc2          1.9078 # average power of fetch unit per cycle_cc2
avg_dispatch_power_cc2       0.1619 # average power of dispatch unit per cycle_cc2
avg_issue_power_cc2          5.2290 # average power of issue unit per cycle_cc2
total_power_cycle_cc2  7237308506.4239 # total power per cycle_cc2
avg_total_power_cycle_cc2      13.0447 # average total power per cycle_cc2
avg_total_power_insn_cc2       8.4181 # average total power per insn_cc2
rename_power_cc3       100434129.7556 # total power usage of rename unit_cc3
bpred_power_cc3        481234634.8774 # total power usage of bpred unit_cc3
window_power_cc3       661160928.5542 # total power usage of instruction window_cc3
lsq_power_cc3          106497755.3011 # total power usage of lsq_cc3
regfile_power_cc3      381200808.0988 # total power usage of arch. regfile_cc3
icache_power_cc3       844708378.7139 # total power usage of icache_cc3
dcache_power_cc3       653466919.2926 # total power usage of dcache_cc3
dcache2_power_cc3      271590777.6940 # total power usage of dcache2_cc3
alu_power_cc3          2008081323.7089 # total power usage of alu_cc3
resultbus_power_cc3    410462550.2751 # total power usage of resultbus_cc3
clock_power_cc3        3747862756.5856 # total power usage of clock_cc3
avg_rename_power_cc3         0.1810 # avg power usage of rename unit_cc3
avg_bpred_power_cc3          0.8674 # avg power usage of bpred unit_cc3
avg_window_power_cc3         1.1917 # avg power usage of instruction window_cc3
avg_lsq_power_cc3            0.1920 # avg power usage of instruction lsq_cc3
avg_regfile_power_cc3        0.6871 # avg power usage of arch. regfile_cc3
avg_icache_power_cc3         1.5225 # avg power usage of icache_cc3
avg_dcache_power_cc3         1.1778 # avg power usage of dcache_cc3
avg_dcache2_power_cc3        0.4895 # avg power usage of dcache2_cc3
avg_alu_power_cc3            3.6194 # avg power usage of alu_cc3
avg_resultbus_power_cc3       0.7398 # avg power usage of resultbus_cc3
avg_clock_power_cc3          6.7552 # avg power usage of clock_cc3
fetch_stage_power_cc3  1325943013.5913 # total power usage of fetch stage_cc3
dispatch_stage_power_cc3 100434129.7556 # total power usage of dispatch stage_cc3
issue_stage_power_cc3  4111260254.8259 # total power usage of issue stage_cc3
avg_fetch_power_cc3          2.3899 # average power of fetch unit per cycle_cc3
avg_dispatch_power_cc3       0.1810 # average power of dispatch unit per cycle_cc3
avg_issue_power_cc3          7.4102 # average power of issue unit per cycle_cc3
total_power_cycle_cc3  9666700962.8571 # total power per cycle_cc3
avg_total_power_cycle_cc3      17.4235 # average total power per cycle_cc3
avg_total_power_insn_cc3      11.2439 # average total power per insn_cc3
total_rename_access       859682784 # total number accesses of rename unit
total_bpred_access        120522975 # total number accesses of bpred unit
total_window_access      3201179934 # total number accesses of instruction window
total_lsq_access          261462551 # total number accesses of load/store queue
total_regfile_access     1267836741 # total number accesses of arch. regfile
total_icache_access       884741858 # total number accesses of icache
total_dcache_access       261420869 # total number accesses of dcache
total_dcache2_access       22191326 # total number accesses of dcache2
total_alu_access          821229736 # total number accesses of alu
total_resultbus_access    906885751 # total number accesses of resultbus
avg_rename_access            1.5495 # avg number accesses of rename unit
avg_bpred_access             0.2172 # avg number accesses of bpred unit
avg_window_access            5.7699 # avg number accesses of instruction window
avg_lsq_access               0.4713 # avg number accesses of lsq
avg_regfile_access           2.2852 # avg number accesses of arch. regfile
avg_icache_access            1.5947 # avg number accesses of icache
avg_dcache_access            0.4712 # avg number accesses of dcache
avg_dcache2_access           0.0400 # avg number accesses of dcache2
avg_alu_access               1.4802 # avg number accesses of alu
avg_resultbus_access         1.6346 # avg number accesses of resultbus
max_rename_access                 4 # max number accesses of rename unit
max_bpred_access                  4 # max number accesses of bpred unit
max_window_access                17 # max number accesses of instruction window
max_lsq_access                    6 # max number accesses of load/store queue
max_regfile_access               11 # max number accesses of arch. regfile
max_icache_access                 4 # max number accesses of icache
max_dcache_access                 4 # max number accesses of dcache
max_dcache2_access                5 # max number accesses of dcache2
max_alu_access                    4 # max number accesses of alu
max_resultbus_access              9 # max number accesses of resultbus
max_cycle_power_cc1         50.2358 # maximum cycle power usage of cc1
max_cycle_power_cc2         29.4833 # maximum cycle power usage of cc2
max_cycle_power_cc3         31.2997 # maximum cycle power usage of cc3
sim_invalid_addrs                 2 # total non-speculative bogus addresses seen (debug var)
ld_text_base             0x00400000 # program text (code) segment base
ld_text_size                 124464 # program text (code) size in bytes
ld_data_base             0x10000000 # program initialized data segment base
ld_data_size                  13588 # program init'ed `.data' and uninit'ed `.bss' size in bytes
ld_stack_base            0x7fffc000 # program stack segment base (highest address in stack)
ld_stack_size                 16384 # program initial stack size
ld_prog_entry            0x00400140 # program entry point (initial PC)
ld_environ_base          0x7fff8000 # program environment base address address
ld_target_big_endian              0 # target executable endian-ness, non-zero if big endian
mem.page_count                  962 # total number of pages allocated
mem.page_mem                  3848k # total size of memory pages allocated
mem.ptab_misses                1272 # total first level page table misses
mem.ptab_accesses        5602636420 # total page table accesses
mem.ptab_miss_rate           0.0000 # first level page table miss rate

