sim-outorder: SimpleScalar/PISA Tool Set version 3.0 of August, 2003.
Copyright (c) 1994-2003 by Todd M. Austin, Ph.D. and SimpleScalar, LLC.
All Rights Reserved. This version of SimpleScalar is licensed for academic
non-commercial use.  No portion of this work may be used by any commercial
entity, or for any commercial purpose, without the prior written permission
of SimpleScalar, LLC (info@simplescalar.com).


Processor Parameters:
Issue Width: 4
Window Size: 16
Number of Virtual Registers: 32
Number of Physical Registers: 16
Datapath Width: 64
Total Power Consumption: 79.0476
Branch Predictor Power Consumption: 4.52313  (5.87%)
 branch target buffer power (W): 4.16837
 local predict power (W): 0.0879711
 global predict power (W): 0.0996078
 chooser power (W): 0.0702439
 RAS power (W): 0.0969383
Rename Logic Power Consumption: 0.417965  (0.542%)
 Instruction Decode Power (W): 0.0159915
 RAT decode_power (W): 0.113514
 RAT wordline_power (W): 0.0307815
 RAT bitline_power (W): 0.246771
 DCL Comparators (W): 0.0109075
Instruction Window Power Consumption: 2.20432  (2.86%)
 tagdrive (W): 0.0943488
 tagmatch (W): 0.033695
 Selection Logic (W): 0.0134217
 decode_power (W): 0.0532503
 wordline_power (W): 0.0844643
 bitline_power (W): 1.92514
Load/Store Queue Power Consumption: 0.96318  (1.25%)
 tagdrive (W): 0.457232
 tagmatch (W): 0.100774
 decode_power (W): 0.00799577
 wordline_power (W): 0.0150119
 bitline_power (W): 0.382166
Arch. Register File Power Consumption: 3.57247  (4.64%)
 decode_power (W): 0.113514
 wordline_power (W): 0.0844643
 bitline_power (W): 3.37449
Result Bus Power Consumption: 2.29754  (2.98%)
Total Clock Power: 26.8865  (34.9%)
Int ALU Power: 4.66013  (6.05%)
FP ALU Power: 14.281  (18.5%)
Instruction Cache Power Consumption: 6.68399  (8.68%)
 decode_power (W): 1.55896
 wordline_power (W): 0.0983677
 bitline_power (W): 3.54549
 senseamp_power (W): 0.384
 tagarray_power (W): 1.09718
Itlb_power (W): 0.263317 (0.342%)
Data Cache Power Consumption: 5.18303  (6.73%)
 decode_power (W): 0.651055
 wordline_power (W): 0.196735
 bitline_power (W): 2.71235
 senseamp_power (W): 0.768
 tagarray_power (W): 0.854886
Dtlb_power (W): 0.901877 (1.17%)
Level 2 Cache Power Consumption: 4.2091 (5.46%)
 decode_power (W): 0.41817
 wordline_power (W): 0.0430878
 bitline_power (W): 3.0244
 senseamp_power (W): 0.192
 tagarray_power (W): 0.531433
sim: command line: sim-outorder -redir:sim /home/ubuntu/ece568-single-core-dse/results/mem-il1-assoc-4.out -config /home/ubuntu/ece568-single-core-dse/configs/step1-mem/mem-il1-assoc-4.cfg eeg 

sim: simulation started @ Sat Mar  5 21:50:21 2016, options follow:

sim-outorder: This simulator implements a very detailed out-of-order issue
superscalar processor with a two-level memory system and speculative
execution support.  This simulator is a performance simulator, tracking the
latency of all pipeline operations.

# -config                     # load configuration from a file
# -dumpconfig                 # dump configuration to a file
# -h                    false # print help message    
# -v                    false # verbose operation     
# -d                    false # enable debug message  
# -i                    false # start in Dlite debugger
-seed                       1 # random number generator seed (0 for timer seed)
# -q                    false # initialize and terminate immediately
# -chkpt               <null> # restore EIO trace execution from <fname>
# -redir:sim     /home/ubuntu/ece568-single-core-dse/results/mem-il1-assoc-4.out # redirect simulator output to file (non-interactive only)
# -redir:prog          <null> # redirect simulated program output to file
-nice                       0 # simulator scheduling priority
-max:inst                   0 # maximum number of inst's to execute
-fastfwd                    0 # number of insts skipped before timing starts
# -ptrace              <null> # generate pipetrace, i.e., <fname|stdout|stderr> <range>
-fetch:ifqsize              4 # instruction fetch queue size (in insts)
-fetch:mplat                3 # extra branch mis-prediction latency
-fetch:speed                1 # speed of front-end of machine relative to execution core
-bpred                  bimod # branch predictor type {nottaken|taken|perfect|bimod|2lev|comb}
-bpred:bimod     2048 # bimodal predictor config (<table size>)
-bpred:2lev      1 1024 8 0 # 2-level predictor config (<l1size> <l2size> <hist_size> <xor>)
-bpred:comb      1024 # combining predictor config (<meta_table_size>)
-bpred:ras                  8 # return address stack size (0 for no return stack)
-bpred:btb       512 4 # BTB config (<num_sets> <associativity>)
# -bpred:spec_update       <null> # speculative predictors update in {ID|WB} (default non-spec)
-decode:width               4 # instruction decode B/W (insts/cycle)
-issue:width                4 # instruction issue B/W (insts/cycle)
-issue:inorder          false # run pipeline with in-order issue
-issue:wrongpath         true # issue instructions down wrong execution paths
-commit:width               4 # instruction commit B/W (insts/cycle)
-ruu:size                  16 # register update unit (RUU) size
-lsq:size                   8 # load/store queue (LSQ) size
-cache:dl1       dl1:128:32:4:r # l1 data cache config, i.e., {<config>|none}
-cache:dl1lat               1 # l1 data cache hit latency (in cycles)
-cache:dl2       ul2:1024:64:4:l # l2 data cache config, i.e., {<config>|none}
-cache:dl2lat               6 # l2 data cache hit latency (in cycles)
-cache:il1       il1:512:32:4:l # l1 inst cache config, i.e., {<config>|dl1|dl2|none}
-cache:il1lat               1 # l1 instruction cache hit latency (in cycles)
-cache:il2                dl2 # l2 instruction cache config, i.e., {<config>|dl2|none}
-cache:il2lat               6 # l2 instruction cache hit latency (in cycles)
-cache:flush            false # flush caches on system calls
-cache:icompress        false # convert 64-bit inst addresses to 32-bit inst equivalents
-mem:lat         18 2 # memory access latency (<first_chunk> <inter_chunk>)
-mem:width                  8 # memory access bus width (in bytes)
-tlb:itlb        itlb:16:4096:4:l # instruction TLB config, i.e., {<config>|none}
-tlb:dtlb        dtlb:32:4096:4:l # data TLB config, i.e., {<config>|none}
-tlb:lat                   30 # inst/data TLB miss latency (in cycles)
-res:ialu                   4 # total number of integer ALU's available
-res:imult                  1 # total number of integer multiplier/dividers available
-res:memport                2 # total number of memory system ports available (to CPU)
-res:fpalu                  4 # total number of floating point ALU's available
-res:fpmult                 1 # total number of floating point multiplier/dividers available
# -pcstat              <null> # profile stat(s) against text addr's (mult uses ok)
-bugcompat              false # operate in backward-compatible bugs mode (for testing only)

  Pipetrace range arguments are formatted as follows:

    {{@|#}<start>}:{{@|#|+}<end>}

  Both ends of the range are optional, if neither are specified, the entire
  execution is traced.  Ranges that start with a `@' designate an address
  range to be traced, those that start with an `#' designate a cycle count
  range.  All other range values represent an instruction count range.  The
  second argument, if specified with a `+', indicates a value relative
  to the first argument, e.g., 1000:+100 == 1000:1100.  Program symbols may
  be used in all contexts.

    Examples:   -ptrace FOO.trc #0:#1000
                -ptrace BAR.trc @2000:
                -ptrace BLAH.trc :1500
                -ptrace UXXE.trc :
                -ptrace FOOBAR.trc @main:+278

  Branch predictor configuration examples for 2-level predictor:
    Configurations:   N, M, W, X
      N   # entries in first level (# of shift register(s))
      W   width of shift register(s)
      M   # entries in 2nd level (# of counters, or other FSM)
      X   (yes-1/no-0) xor history and address for 2nd level index
    Sample predictors:
      GAg     : 1, W, 2^W, 0
      GAp     : 1, W, M (M > 2^W), 0
      PAg     : N, W, 2^W, 0
      PAp     : N, W, M (M == 2^(N+W)), 0
      gshare  : 1, W, 2^W, 1
  Predictor `comb' combines a bimodal and a 2-level predictor.

  The cache config parameter <config> has the following format:

    <name>:<nsets>:<bsize>:<assoc>:<repl>

    <name>   - name of the cache being defined
    <nsets>  - number of sets in the cache
    <bsize>  - block size of the cache
    <assoc>  - associativity of the cache
    <repl>   - block replacement strategy, 'l'-LRU, 'f'-FIFO, 'r'-random

    Examples:   -cache:dl1 dl1:4096:32:1:l
                -dtlb dtlb:128:4096:32:r

  Cache levels can be unified by pointing a level of the instruction cache
  hierarchy at the data cache hiearchy using the "dl1" and "dl2" cache
  configuration arguments.  Most sensible combinations are supported, e.g.,

    A unified l2 cache (il2 is pointed at dl2):
      -cache:il1 il1:128:64:1:l -cache:il2 dl2
      -cache:dl1 dl1:256:32:1:l -cache:dl2 ul2:1024:64:2:l

    Or, a fully unified cache hierarchy (il1 pointed at dl1):
      -cache:il1 dl1
      -cache:dl1 ul1:256:32:1:l -cache:dl2 ul2:1024:64:2:l



sim: ** starting performance simulation **

sim: ** simulation statistics **
sim_num_insn              842550792 # total number of instructions committed
sim_num_refs              255032800 # total number of loads and stores committed
sim_num_loads             171016145 # total number of loads committed
sim_num_stores         84016655.0000 # total number of stores committed
sim_num_branches          120522975 # total number of branches committed
sim_elapsed_time               1511 # total simulation time in seconds
sim_inst_rate           557611.3779 # simulation speed (in insts/sec)
sim_total_insn            860900854 # total number of instructions executed
sim_total_refs            263606647 # total number of loads and stores executed
sim_total_loads           179398067 # total number of loads executed
sim_total_stores       84208580.0000 # total number of stores executed
sim_total_branches        121813119 # total number of branches executed
sim_cycle                 481587768 # total simulation time in cycles
sim_IPC                      1.7495 # instructions per cycle
sim_CPI                      0.5716 # cycles per instruction
sim_exec_BW                  1.7876 # total instructions (mis-spec + committed) per cycle
sim_IPB                      6.9908 # instruction per branch
IFQ_count                1739634340 # cumulative IFQ occupancy
IFQ_fcount                386797053 # cumulative IFQ full count
ifq_occupancy                3.6123 # avg IFQ occupancy (insn's)
ifq_rate                     1.7876 # avg IFQ dispatch rate (insn/cycle)
ifq_latency                  2.0207 # avg IFQ occupant latency (cycle's)
ifq_full                     0.8032 # fraction of time (cycle's) IFQ was full
RUU_count                6908279835 # cumulative RUU occupancy
RUU_fcount                261271839 # cumulative RUU full count
ruu_occupancy               14.3448 # avg RUU occupancy (insn's)
ruu_rate                     1.7876 # avg RUU dispatch rate (insn/cycle)
ruu_latency                  8.0245 # avg RUU occupant latency (cycle's)
ruu_full                     0.5425 # fraction of time (cycle's) RUU was full
LSQ_count                2293058982 # cumulative LSQ occupancy
LSQ_fcount                139844389 # cumulative LSQ full count
lsq_occupancy                4.7615 # avg LSQ occupancy (insn's)
lsq_rate                     1.7876 # avg LSQ dispatch rate (insn/cycle)
lsq_latency                  2.6636 # avg LSQ occupant latency (cycle's)
lsq_full                     0.2904 # fraction of time (cycle's) LSQ was full
sim_slip                10183471757 # total number of slip cycles
avg_sim_slip                12.0865 # the average slip between issue and retirement
bpred_bimod.lookups       122437655 # total number of bpred lookups
bpred_bimod.updates       120522975 # total number of updates
bpred_bimod.addr_hits     118500820 # total number of address-predicted hits
bpred_bimod.dir_hits      118682810 # total number of direction-predicted hits (includes addr-hits)
bpred_bimod.misses          1840165 # total number of misses
bpred_bimod.jr_hits        28247770 # total number of address-predicted hits for JR's
bpred_bimod.jr_seen        28430346 # total number of JR's seen
bpred_bimod.jr_non_ras_hits.PP           39 # total number of address-predicted hits for non-RAS JR's
bpred_bimod.jr_non_ras_seen.PP         1276 # total number of non-RAS JR's seen
bpred_bimod.bpred_addr_rate    0.9832 # branch address-prediction rate (i.e., addr-hits/updates)
bpred_bimod.bpred_dir_rate    0.9847 # branch direction-prediction rate (i.e., all-hits/updates)
bpred_bimod.bpred_jr_rate    0.9936 # JR address-prediction rate (i.e., JR addr-hits/JRs seen)
bpred_bimod.bpred_jr_non_ras_rate.PP    0.0306 # non-RAS JR addr-pred rate (ie, non-RAS JR hits/JRs seen)
bpred_bimod.retstack_pushes     29125580 # total number of address pushed onto ret-addr stack
bpred_bimod.retstack_pops     28633143 # total number of address popped off of ret-addr stack
bpred_bimod.used_ras.PP     28429070 # total number of RAS predictions used
bpred_bimod.ras_hits.PP     28247731 # total number of RAS hits
bpred_bimod.ras_rate.PP    0.9936 # RAS prediction rate (i.e., RAS hits/used RAS)
il1.accesses              868906170 # total number of accesses
il1.hits                  868903791 # total number of hits
il1.misses                     2379 # total number of misses
il1.replacements                476 # total number of replacements
il1.writebacks                    0 # total number of writebacks
il1.invalidations                 0 # total number of invalidations
il1.miss_rate                0.0000 # miss rate (i.e., misses/ref)
il1.repl_rate                0.0000 # replacement rate (i.e., repls/ref)
il1.wb_rate                  0.0000 # writeback rate (i.e., wrbks/ref)
il1.inv_rate                 0.0000 # invalidation rate (i.e., invs/ref)
dl1.accesses              261590919 # total number of accesses
dl1.hits                  260881105 # total number of hits
dl1.misses                   709814 # total number of misses
dl1.replacements             709302 # total number of replacements
dl1.writebacks               440645 # total number of writebacks
dl1.invalidations                 0 # total number of invalidations
dl1.miss_rate                0.0027 # miss rate (i.e., misses/ref)
dl1.repl_rate                0.0027 # replacement rate (i.e., repls/ref)
dl1.wb_rate                  0.0017 # writeback rate (i.e., wrbks/ref)
dl1.inv_rate                 0.0000 # invalidation rate (i.e., invs/ref)
ul2.accesses                1152838 # total number of accesses
ul2.hits                    1091111 # total number of hits
ul2.misses                    61727 # total number of misses
ul2.replacements              57631 # total number of replacements
ul2.writebacks                56494 # total number of writebacks
ul2.invalidations                 0 # total number of invalidations
ul2.miss_rate                0.0535 # miss rate (i.e., misses/ref)
ul2.repl_rate                0.0500 # replacement rate (i.e., repls/ref)
ul2.wb_rate                  0.0490 # writeback rate (i.e., wrbks/ref)
ul2.inv_rate                 0.0000 # invalidation rate (i.e., invs/ref)
itlb.accesses             868906170 # total number of accesses
itlb.hits                 868906139 # total number of hits
itlb.misses                      31 # total number of misses
itlb.replacements                 0 # total number of replacements
itlb.writebacks                   0 # total number of writebacks
itlb.invalidations                0 # total number of invalidations
itlb.miss_rate               0.0000 # miss rate (i.e., misses/ref)
itlb.repl_rate               0.0000 # replacement rate (i.e., repls/ref)
itlb.wb_rate                 0.0000 # writeback rate (i.e., wrbks/ref)
itlb.inv_rate                0.0000 # invalidation rate (i.e., invs/ref)
dtlb.accesses             261613451 # total number of accesses
dtlb.hits                 261612068 # total number of hits
dtlb.misses                    1383 # total number of misses
dtlb.replacements              1255 # total number of replacements
dtlb.writebacks                   0 # total number of writebacks
dtlb.invalidations                0 # total number of invalidations
dtlb.miss_rate               0.0000 # miss rate (i.e., misses/ref)
dtlb.repl_rate               0.0000 # replacement rate (i.e., repls/ref)
dtlb.wb_rate                 0.0000 # writeback rate (i.e., wrbks/ref)
dtlb.inv_rate                0.0000 # invalidation rate (i.e., invs/ref)
rename_power           201287068.2068 # total power usage of rename unit
bpred_power            2178282336.8540 # total power usage of bpred unit
window_power           1061573282.4209 # total power usage of instruction window
lsq_power              463855702.7022 # total power usage of load/store queue
regfile_power          1720458863.1568 # total power usage of arch. regfile
icache_power           3345740246.7263 # total power usage of icache
dcache_power           2930416415.8978 # total power usage of dcache
dcache2_power          2027048890.7856 # total power usage of dcache2
alu_power              9121838411.7814 # total power usage of alu
falu_power             6877576566.8651 # total power usage of falu
resultbus_power        1106468558.4005 # total power usage of resultbus
clock_power            12948232433.7243 # total power usage of clock
avg_rename_power             0.4180 # avg power usage of rename unit
avg_bpred_power              4.5231 # avg power usage of bpred unit
avg_window_power             2.2043 # avg power usage of instruction window
avg_lsq_power                0.9632 # avg power usage of lsq
avg_regfile_power            3.5725 # avg power usage of arch. regfile
avg_icache_power             6.9473 # avg power usage of icache
avg_dcache_power             6.0849 # avg power usage of dcache
avg_dcache2_power            4.2091 # avg power usage of dcache2
avg_alu_power               18.9412 # avg power usage of alu
avg_falu_power              14.2810 # avg power usage of falu
avg_resultbus_power          2.2975 # avg power usage of resultbus
avg_clock_power             26.8865 # avg power usage of clock
fetch_stage_power      5524022583.5802 # total power usage of fetch stage
dispatch_stage_power   201287068.2068 # total power usage of dispatch stage
issue_stage_power      16711201261.9884 # total power usage of issue stage
avg_fetch_power             11.4704 # average power of fetch unit per cycle
avg_dispatch_power           0.4180 # average power of dispatch unit per cycle
avg_issue_power             34.7002 # average power of issue unit per cycle
total_power            37105202210.6565 # total power per cycle
avg_total_power_cycle       77.0476 # average total power per cycle
avg_total_power_cycle_nofp_nod2      58.5575 # average total power per cycle
avg_total_power_insn        43.1004 # average total power per insn
avg_total_power_insn_nofp_nod2      32.7571 # average total power per insn
rename_power_cc1       126625728.7655 # total power usage of rename unit_cc1
bpred_power_cc1        435225804.4929 # total power usage of bpred unit_cc1
window_power_cc1       857814361.3966 # total power usage of instruction window_cc1
lsq_power_cc1          79491161.7693 # total power usage of lsq_cc1
regfile_power_cc1      939636183.2284 # total power usage of arch. regfile_cc1
icache_power_cc1       2160920618.0171 # total power usage of icache_cc1
dcache_power_cc1       999236972.1821 # total power usage of dcache_cc1
dcache2_power_cc1      2973100.8808 # total power usage of dcache2_cc1
alu_power_cc1          3182646837.9145 # total power usage of alu_cc1
resultbus_power_cc1    648729133.7678 # total power usage of resultbus_cc1
clock_power_cc1        5598705622.8615 # total power usage of clock_cc1
avg_rename_power_cc1         0.2629 # avg power usage of rename unit_cc1
avg_bpred_power_cc1          0.9037 # avg power usage of bpred unit_cc1
avg_window_power_cc1         1.7812 # avg power usage of instruction window_cc1
avg_lsq_power_cc1            0.1651 # avg power usage of lsq_cc1
avg_regfile_power_cc1        1.9511 # avg power usage of arch. regfile_cc1
avg_icache_power_cc1         4.4871 # avg power usage of icache_cc1
avg_dcache_power_cc1         2.0749 # avg power usage of dcache_cc1
avg_dcache2_power_cc1        0.0062 # avg power usage of dcache2_cc1
avg_alu_power_cc1            6.6087 # avg power usage of alu_cc1
avg_resultbus_power_cc1       1.3471 # avg power usage of resultbus_cc1
avg_clock_power_cc1         11.6255 # avg power usage of clock_cc1
fetch_stage_power_cc1  2596146422.5100 # total power usage of fetch stage_cc1
dispatch_stage_power_cc1 126625728.7655 # total power usage of dispatch stage_cc1
issue_stage_power_cc1  5770891567.9111 # total power usage of issue stage_cc1
avg_fetch_power_cc1          5.3908 # average power of fetch unit per cycle_cc1
avg_dispatch_power_cc1       0.2629 # average power of dispatch unit per cycle_cc1
avg_issue_power_cc1         11.9831 # average power of issue unit per cycle_cc1
total_power_cycle_cc1  15032005525.2766 # total power per cycle_cc1
avg_total_power_cycle_cc1      31.2134 # average total power per cycle_cc1
avg_total_power_insn_cc1      17.4608 # average total power per insn_cc1
rename_power_cc2       89951848.4322 # total power usage of rename unit_cc2
bpred_power_cc2        272570325.2430 # total power usage of bpred unit_cc2
window_power_cc2       640277068.1248 # total power usage of instruction window_cc2
lsq_power_cc2          61422271.4429 # total power usage of lsq_cc2
regfile_power_cc2      308144978.2526 # total power usage of arch. regfile_cc2
icache_power_cc2       2160920618.0171 # total power usage of icache_cc2
dcache_power_cc2       795878110.7965 # total power usage of dcache_cc2
dcache2_power_cc2      2426202.5869 # total power usage of dcache2_cc2
alu_power_cc2          1277713458.9591 # total power usage of alu_cc2
resultbus_power_cc2    383191589.5978 # total power usage of resultbus_cc2
clock_power_cc2        3556200914.9306 # total power usage of clock_cc2
avg_rename_power_cc2         0.1868 # avg power usage of rename unit_cc2
avg_bpred_power_cc2          0.5660 # avg power usage of bpred unit_cc2
avg_window_power_cc2         1.3295 # avg power usage of instruction window_cc2
avg_lsq_power_cc2            0.1275 # avg power usage of instruction lsq_cc2
avg_regfile_power_cc2        0.6399 # avg power usage of arch. regfile_cc2
avg_icache_power_cc2         4.4871 # avg power usage of icache_cc2
avg_dcache_power_cc2         1.6526 # avg power usage of dcache_cc2
avg_dcache2_power_cc2        0.0050 # avg power usage of dcache2_cc2
avg_alu_power_cc2            2.6531 # avg power usage of alu_cc2
avg_resultbus_power_cc2       0.7957 # avg power usage of resultbus_cc2
avg_clock_power_cc2          7.3843 # avg power usage of clock_cc2
fetch_stage_power_cc2  2433490943.2601 # total power usage of fetch stage_cc2
dispatch_stage_power_cc2 89951848.4322 # total power usage of dispatch stage_cc2
issue_stage_power_cc2  3160908701.5081 # total power usage of issue stage_cc2
avg_fetch_power_cc2          5.0531 # average power of fetch unit per cycle_cc2
avg_dispatch_power_cc2       0.1868 # average power of dispatch unit per cycle_cc2
avg_issue_power_cc2          6.5635 # average power of issue unit per cycle_cc2
total_power_cycle_cc2  9548697386.3836 # total power per cycle_cc2
avg_total_power_cycle_cc2      19.8275 # average total power per cycle_cc2
avg_total_power_insn_cc2      11.0915 # average total power per insn_cc2
rename_power_cc3       97417982.3607 # total power usage of rename unit_cc3
bpred_power_cc3        449339000.4047 # total power usage of bpred unit_cc3
window_power_cc3       652817887.3726 # total power usage of instruction window_cc3
lsq_power_cc3          99285693.0586 # total power usage of lsq_cc3
regfile_power_cc3      366426180.2994 # total power usage of arch. regfile_cc3
icache_power_cc3       2279402586.6465 # total power usage of icache_cc3
dcache_power_cc3       990099492.5411 # total power usage of dcache_cc3
dcache2_power_cc3      204838250.2867 # total power usage of dcache2_cc3
alu_power_cc3          1871632612.4138 # total power usage of alu_cc3
resultbus_power_cc3    406630493.0644 # total power usage of resultbus_cc3
clock_power_cc3        4262563466.5567 # total power usage of clock_cc3
avg_rename_power_cc3         0.2023 # avg power usage of rename unit_cc3
avg_bpred_power_cc3          0.9330 # avg power usage of bpred unit_cc3
avg_window_power_cc3         1.3556 # avg power usage of instruction window_cc3
avg_lsq_power_cc3            0.2062 # avg power usage of instruction lsq_cc3
avg_regfile_power_cc3        0.7609 # avg power usage of arch. regfile_cc3
avg_icache_power_cc3         4.7331 # avg power usage of icache_cc3
avg_dcache_power_cc3         2.0559 # avg power usage of dcache_cc3
avg_dcache2_power_cc3        0.4253 # avg power usage of dcache2_cc3
avg_alu_power_cc3            3.8864 # avg power usage of alu_cc3
avg_resultbus_power_cc3       0.8444 # avg power usage of resultbus_cc3
avg_clock_power_cc3          8.8511 # avg power usage of clock_cc3
fetch_stage_power_cc3  2728741587.0512 # total power usage of fetch stage_cc3
dispatch_stage_power_cc3 97417982.3607 # total power usage of dispatch stage_cc3
issue_stage_power_cc3  4225304428.7372 # total power usage of issue stage_cc3
avg_fetch_power_cc3          5.6661 # average power of fetch unit per cycle_cc3
avg_dispatch_power_cc3       0.2023 # average power of dispatch unit per cycle_cc3
avg_issue_power_cc3          8.7737 # average power of issue unit per cycle_cc3
total_power_cycle_cc3  11680453645.0052 # total power per cycle_cc3
avg_total_power_cycle_cc3      24.2540 # average total power per cycle_cc3
avg_total_power_insn_cc3      13.5677 # average total power per insn_cc3
total_rename_access       860854315 # total number accesses of rename unit
total_bpred_access        120522975 # total number accesses of bpred unit
total_window_access      3185921125 # total number accesses of instruction window
total_lsq_access          261638635 # total number accesses of load/store queue
total_regfile_access     1252023352 # total number accesses of arch. regfile
total_icache_access       868957199 # total number accesses of icache
total_dcache_access       261590919 # total number accesses of dcache
total_dcache2_access        1152838 # total number accesses of dcache2
total_alu_access          821299063 # total number accesses of alu
total_resultbus_access    906919826 # total number accesses of resultbus
avg_rename_access            1.7875 # avg number accesses of rename unit
avg_bpred_access             0.2503 # avg number accesses of bpred unit
avg_window_access            6.6155 # avg number accesses of instruction window
avg_lsq_access               0.5433 # avg number accesses of lsq
avg_regfile_access           2.5998 # avg number accesses of arch. regfile
avg_icache_access            1.8044 # avg number accesses of icache
avg_dcache_access            0.5432 # avg number accesses of dcache
avg_dcache2_access           0.0024 # avg number accesses of dcache2
avg_alu_access               1.7054 # avg number accesses of alu
avg_resultbus_access         1.8832 # avg number accesses of resultbus
max_rename_access                 4 # max number accesses of rename unit
max_bpred_access                  4 # max number accesses of bpred unit
max_window_access                17 # max number accesses of instruction window
max_lsq_access                    6 # max number accesses of load/store queue
max_regfile_access               12 # max number accesses of arch. regfile
max_icache_access                 4 # max number accesses of icache
max_dcache_access                 4 # max number accesses of dcache
max_dcache2_access                6 # max number accesses of dcache2
max_alu_access                    4 # max number accesses of alu
max_resultbus_access              9 # max number accesses of resultbus
max_cycle_power_cc1         65.3186 # maximum cycle power usage of cc1
max_cycle_power_cc2         41.7250 # maximum cycle power usage of cc2
max_cycle_power_cc3         42.9817 # maximum cycle power usage of cc3
sim_invalid_addrs                 0 # total non-speculative bogus addresses seen (debug var)
ld_text_base             0x00400000 # program text (code) segment base
ld_text_size                 124464 # program text (code) size in bytes
ld_data_base             0x10000000 # program initialized data segment base
ld_data_size                  13588 # program init'ed `.data' and uninit'ed `.bss' size in bytes
ld_stack_base            0x7fffc000 # program stack segment base (highest address in stack)
ld_stack_size                 16384 # program initial stack size
ld_prog_entry            0x00400140 # program entry point (initial PC)
ld_environ_base          0x7fff8000 # program environment base address address
ld_target_big_endian              0 # target executable endian-ness, non-zero if big endian
mem.page_count                  962 # total number of pages allocated
mem.page_mem                  3848k # total size of memory pages allocated
mem.ptab_misses                1276 # total first level page table misses
mem.ptab_accesses        5539830010 # total page table accesses
mem.ptab_miss_rate           0.0000 # first level page table miss rate

